@<TRIPOS>MOLECULE
3R137
137   139    1
SMALL
USER_CHARGES


@<TRIPOS>ATOM
      1 CA         25.6353   -5.3446   -4.2636 C.3       0 UNK        -0.2020 
      2 C          25.9894   -4.1130   -3.4469 C.2       0 UNK         0.4855 
      3 O          25.9690   -2.9970   -3.9718 O.2       0 UNK        -0.5197 
      4 N          26.3007   -4.2970   -2.1561 N.am      1 UNK        -0.4892 
      5 CA         26.6688   -3.2670   -1.1662 C.3       1 UNK         0.0835 
      6 C6         27.8608   -2.3842   -1.6345 C.3       12 UNK        -0.0855 
      7 S7         29.1012   -2.0987   -0.3313 S.3       12 UNK        -0.2931 
      8 C8         30.2985   -3.4339   -0.6622 C.3       12 UNK         0.0378 
      9 C9         31.0045   -3.2714   -2.0031 C.ar      12 UNK        -0.0802 
     10 C10        32.0091   -2.3109   -2.1573 C.ar      12 UNK        -0.0944 
     11 C11        32.6741   -2.1713   -3.3790 C.ar      12 UNK        -0.0787 
     12 C12        32.3261   -2.9972   -4.4519 C.ar      12 UNK        -0.0862 
     13 C13        31.3263   -3.9639   -4.3105 C.ar      12 UNK        -0.0733 
     14 C14        30.6710   -4.0981   -3.0824 C.ar      12 UNK        -0.0832 
     15 C15        30.9882   -4.8895   -5.4724 C.3       12 UNK         0.0240 
     16 S16        30.2277   -4.0087   -6.8728 S.3       12 UNK        -0.2522 
     17 C17        28.5672   -3.6415   -6.2162 C.3       12 UNK        -0.0967 
     18 CA         27.8798   -2.4783   -6.9744 C.3       5 UNK         0.0660 
     19 N          26.4621   -2.3734   -6.6466 N.am      5 UNK        -0.4015 
     20 C          25.4787   -2.2590   -7.5441 C.2       4 UNK         0.4946 
     21 O          25.6274   -2.4335   -8.7539 O.2       4 UNK        -0.5353 
     22 CA         24.0911   -1.8550   -7.0128 C.3       4 UNK         0.0277 
     23 CB         23.2732   -3.1022   -6.6415 C.3       4 UNK        -0.1981 
     24 N          24.0955   -0.9271   -5.8733 N.am      4 UNK        -0.4209 
     25 C          24.7451    0.2416   -5.7812 C.2       3 UNK         0.4942 
     26 O          25.5217    0.6641   -6.6390 O.2       3 UNK        -0.5208 
     27 CA         24.5195    1.0936   -4.5166 C.3       3 UNK         0.0250 
     28 CB         23.3827    2.1109   -4.7391 C.3       3 UNK        -0.1990 
     29 N          24.3290    0.3384   -3.2668 N.am      3 UNK        -0.4232 
     30 C          23.3073   -0.4523   -2.9044 C.2       2 UNK         0.4993 
     31 O          22.3402   -0.7024   -3.6251 O.2       2 UNK        -0.5286 
     32 CA         23.4629   -1.1581   -1.5523 C.3       2 UNK         0.0209 
     33 CB         22.2259   -1.9819   -1.1432 C.3       2 UNK        -0.1931 
     34 N          24.6234   -2.0283   -1.6742 N.am      2 UNK        -0.4546 
     35 C          25.4717   -2.3987   -0.7136 C.2       1 UNK         0.5154 
     36 O          25.3417   -2.0897    0.4715 O.2       1 UNK        -0.5181 
     37 C          28.5423   -1.1158   -6.7078 C.2       5 UNK         0.5014 
     38 O          29.0012   -0.4707   -7.6510 O.2       5 UNK        -0.5248 
     39 N          28.5731   -0.6984   -5.4337 N.am      6 UNK        -0.4434 
     40 CA         29.4223    0.3847   -4.9242 C.3       6 UNK         0.0363 
     41 CB         29.2995    0.4510   -3.3950 C.3       6 UNK        -0.1936 
     42 C          29.2298    1.7829   -5.5400 C.2       6 UNK         0.5081 
     43 O          30.1483    2.5961   -5.4309 O.2       6 UNK        -0.5248 
     44 N          28.0784    2.0500   -6.1689 N.am      7 UNK        -0.4718 
     45 CA         27.8088    3.3003   -6.8819 C.3       7 UNK         0.0273 
     46 CB         26.5727    3.9872   -6.2789 C.3       7 UNK        -0.1935 
     47 C          27.6150    3.0547   -8.3838 C.2       7 UNK         0.5018 
     48 O          28.1837    3.7947   -9.1866 O.2       7 UNK        -0.5186 
     49 N          26.8068    2.0460   -8.7420 N.am      8 UNK        -0.4240 
     50 CA         26.4175    1.7631  -10.1258 C.3       8 UNK         0.0235 
     51 CB         25.1634    0.8781  -10.1423 C.3       8 UNK        -0.2000 
     52 C          27.5466    1.1513  -10.9716 C.2       8 UNK         0.4941 
     53 O          27.7157    1.5624  -12.1206 O.2       8 UNK        -0.5273 
     54 N          28.3048    0.2042  -10.4008 N.am      9 UNK        -0.4262 
     55 CA         29.5312   -0.3296  -11.0060 C.3       9 UNK         0.0264 
     56 CB         29.7189   -1.8064  -10.6168 C.3       9 UNK        -0.1955 
     57 C          30.7502    0.5120  -10.5914 C.2       9 UNK         0.5031 
     58 O          31.6455    0.7126  -11.4135 O.2       9 UNK        -0.5390 
     59 N          30.7193    1.0091   -9.3453 N.am      10 UNK        -0.4204 
     60 CA         31.6795    1.8713   -8.6513 C.3       10 UNK         0.0237 
     61 CB         32.0688    3.1102   -9.4828 C.3       10 UNK        -0.1985 
     62 C          32.9128    1.1078   -8.1463 C.2       10 UNK         0.4970 
     63 O          33.3856    0.1715   -8.7935 O.2       10 UNK        -0.4914 
     64 N          33.4203    1.5460   -6.9890 N.am      11 UNK        -0.4285 
     65 CA         34.6155    0.9909   -6.3313 C.3       11 UNK         0.1007 
     66 C          35.9666    1.4619   -6.9450 C.2       11 UNK         0.5703 
     67 N          35.9868    2.4173   -7.8674 N.am      11 UNK        -0.7361 
     68 O          37.0190    0.9409   -6.5831 O.2       11 UNK        -0.4986 
     69 C69        34.5830    1.2255   -4.7972 C.3       12 UNK        -0.0947 
     70 S70        33.1159    0.4738   -4.0196 S.3       12 UNK        -0.2240 
     71 C71        33.7837   -1.1455   -3.5399 C.3       12 UNK         0.0194 
     72 H72        25.8816   -5.1923   -5.3135 H         1 UNK         0.0906 
     73 H73        26.1768   -6.2232   -3.9139 H         1 UNK         0.0906 
     74 H74        24.5669   -5.5459   -4.1932 H         1 UNK         0.0906 
     75 H75        26.2575   -5.2362   -1.7828 H         1 UNK         0.3140 
     76 H76        26.9784   -3.8324   -0.2853 H         1 UNK         0.1085 
     77 H77        28.3603   -2.8325   -2.4910 H         1 UNK         0.0836 
     78 H78        27.5189   -1.4152   -2.0009 H         1 UNK         0.0836 
     79 H79        31.0427   -3.4431    0.1355 H         1 UNK         0.0731 
     80 H80        29.7857   -4.3957   -0.6083 H         1 UNK         0.0731 
     81 H81        32.2730   -1.6722   -1.3253 H         1 UNK         0.1312 
     82 H82        32.8380   -2.8937   -5.3992 H         1 UNK         0.1406 
     83 H83        29.9035   -4.8510   -2.9634 H         1 UNK         0.1631 
     84 H84        30.3261   -5.6962   -5.1538 H         1 UNK         0.0717 
     85 H85        31.9052   -5.3681   -5.8190 H         1 UNK         0.0717 
     86 H86        27.9747   -4.5504   -6.3264 H         1 UNK         0.0934 
     87 H87        28.6207   -3.4464   -5.1443 H         1 UNK         0.0934 
     88 H88        27.9897   -2.6803   -8.0421 H         1 UNK         0.0739 
     89 H89        26.2215   -2.3087   -5.6600 H         1 UNK         0.3093 
     90 H90        23.5786   -1.3430   -7.8296 H         1 UNK         0.0818 
     91 H91        22.2415   -2.8428   -6.4033 H         1 UNK         0.0819 
     92 H92        23.2449   -3.8144   -7.4674 H         1 UNK         0.0819 
     93 H93        23.6956   -3.6168   -5.7784 H         1 UNK         0.0819 
     94 H94        23.4484   -1.1353   -5.1180 H         1 UNK         0.3041 
     95 H95        25.4389    1.6635   -4.3716 H         1 UNK         0.0784 
     96 H96        23.5619    2.7147   -5.6290 H         1 UNK         0.0793 
     97 H97        22.4172    1.6237   -4.8772 H         1 UNK         0.0793 
     98 H98        23.2945    2.7961   -3.8961 H         1 UNK         0.0793 
     99 H99        25.0925    0.4193   -2.6094 H         1 UNK         0.3024 
    100 H100       23.6471   -0.3943   -0.7932 H         1 UNK         0.1171 
    101 H101       22.0132   -2.7745   -1.8617 H         1 UNK         0.0786 
    102 H102       21.3397   -1.3492   -1.0798 H         1 UNK         0.0786 
    103 H103       22.3645   -2.4452   -0.1663 H         1 UNK         0.0786 
    104 H104       24.8642   -2.3183   -2.6199 H         1 UNK         0.2977 
    105 H105       28.1266   -1.2721   -4.7345 H         1 UNK         0.3127 
    106 H106       30.4478    0.0954   -5.1603 H         1 UNK         0.0770 
    107 H107       29.6348   -0.4781   -2.9350 H         1 UNK         0.0814 
    108 H108       28.2751    0.6481   -3.0786 H         1 UNK         0.0814 
    109 H109       29.9261    1.2448   -2.9856 H         1 UNK         0.0814 
    110 H110       27.3758    1.3222   -6.2440 H         1 UNK         0.2983 
    111 H111       28.6491    3.9908   -6.7802 H         1 UNK         0.0947 
    112 H112       26.3913    4.9500   -6.7584 H         1 UNK         0.0806 
    113 H113       26.7032    4.1746   -5.2130 H         1 UNK         0.0806 
    114 H114       25.6730    3.3876   -6.4074 H         1 UNK         0.0806 
    115 H115       26.3525    1.4964   -8.0146 H         1 UNK         0.3000 
    116 H116       26.1487    2.7141  -10.5918 H         1 UNK         0.0850 
    117 H117       24.8377    0.6781  -11.1639 H         1 UNK         0.0810 
    118 H118       24.3328    1.3557   -9.6222 H         1 UNK         0.0810 
    119 H119       25.3474   -0.0813   -9.6645 H         1 UNK         0.0810 
    120 H120       28.1258   -0.0578   -9.4374 H         1 UNK         0.3040 
    121 H121       29.4474   -0.2864  -12.0942 H         1 UNK         0.0766 
    122 H122       30.5551   -2.2430  -11.1641 H         1 UNK         0.0812 
    123 H123       28.8330   -2.3963  -10.8520 H         1 UNK         0.0812 
    124 H124       29.9344   -1.9316   -9.5560 H         1 UNK         0.0812 
    125 H125       29.9793    0.6467   -8.7467 H         1 UNK         0.3205 
    126 H126       31.1389    2.2333   -7.7787 H         1 UNK         0.0754 
    127 H127       32.6309    3.8230   -8.8786 H         1 UNK         0.0769 
    128 H128       31.1853    3.6290   -9.8559 H         1 UNK         0.0769 
    129 H129       32.6939    2.8502  -10.3375 H         1 UNK         0.0769 
    130 H130       32.9694    2.3111   -6.5082 H         1 UNK         0.2981 
    131 H131       34.5976   -0.0897   -6.4861 H         1 UNK         0.0541 
    132 H132       35.1315    2.8483   -8.1771 H         1 UNK         0.3459 
    133 H133       36.8696    2.7066   -8.2580 H         1 UNK         0.3459 
    134 H134       34.5761    2.2943   -4.5767 H         1 UNK         0.0612 
    135 H135       35.4773    0.8231   -4.3172 H         1 UNK         0.0612 
    136 H136       34.4939   -1.4885   -4.2939 H         1 UNK         0.0624 
    137 H137       34.3456   -1.0429   -2.6104 H         1 UNK         0.0624 
@<TRIPOS>BOND
     1    1    2 1    
     2    1   72 1    
     3    1   73 1    
     4    1   74 1    
     5    2    3 2    
     6    2    4 am   BACKBONE|DICT|INTERRES
     7    4    5 1    
     8    4   75 1    
     9    5    6 1    
    10    5   35 1    
    11    5   76 1    
    12    6    7 1    
    13    6   77 1    
    14    6   78 1    
    15    7    8 1    
    16    8    9 1    
    17    8   79 1    
    18    8   80 1    
    19    9   10 ar   
    20    9   14 ar   
    21   10   11 ar   
    22   10   81 1    
    23   11   12 ar   
    24   11   71 1    
    25   12   13 ar   
    26   12   82 1    
    27   13   14 ar   
    28   13   15 1    
    29   14   83 1    
    30   15   16 1    
    31   15   84 1    
    32   15   85 1    
    33   16   17 1    
    34   17   18 1    
    35   17   86 1    
    36   17   87 1    
    37   18   19 1    
    38   18   37 1    
    39   18   88 1    
    40   19   20 am   BACKBONE|DICT|INTERRES
    41   19   89 1    
    42   20   21 2    
    43   20   22 1    
    44   22   23 1    
    45   22   24 1    
    46   22   90 1    
    47   23   91 1    
    48   23   92 1    
    49   23   93 1    
    50   24   25 am   BACKBONE|DICT|INTERRES
    51   24   94 1    
    52   25   26 2    
    53   25   27 1    
    54   27   28 1    
    55   27   29 1    
    56   27   95 1    
    57   28   96 1    
    58   28   97 1    
    59   28   98 1    
    60   29   30 am   BACKBONE|DICT|INTERRES
    61   29   99 1    
    62   30   31 2    
    63   30   32 1    
    64   32   33 1    
    65   32   34 1    
    66   32  100 1    
    67   33  101 1    
    68   33  102 1    
    69   33  103 1    
    70   34   35 am   BACKBONE|DICT|INTERRES
    71   34  104 1    
    72   35   36 2    
    73   37   38 2    
    74   37   39 am   BACKBONE|DICT|INTERRES
    75   39   40 1    
    76   39  105 1    
    77   40   41 1    
    78   40   42 1    
    79   40  106 1    
    80   41  107 1    
    81   41  108 1    
    82   41  109 1    
    83   42   43 2    
    84   42   44 am   BACKBONE|DICT|INTERRES
    85   44   45 1    
    86   44  110 1    
    87   45   46 1    
    88   45   47 1    
    89   45  111 1    
    90   46  112 1    
    91   46  113 1    
    92   46  114 1    
    93   47   48 2    
    94   47   49 am   BACKBONE|DICT|INTERRES
    95   49   50 1    
    96   49  115 1    
    97   50   51 1    
    98   50   52 1    
    99   50  116 1    
   100   51  117 1    
   101   51  118 1    
   102   51  119 1    
   103   52   53 2    
   104   52   54 am   BACKBONE|DICT|INTERRES
   105   54   55 1    
   106   54  120 1    
   107   55   56 1    
   108   55   57 1    
   109   55  121 1    
   110   56  122 1    
   111   56  123 1    
   112   56  124 1    
   113   57   58 2    
   114   57   59 am   BACKBONE|DICT|INTERRES
   115   59   60 1    
   116   59  125 1    
   117   60   61 1    
   118   60   62 1    
   119   60  126 1    
   120   61  127 1    
   121   61  128 1    
   122   61  129 1    
   123   62   63 2    
   124   62   64 am   BACKBONE|DICT|INTERRES
   125   64   65 1    
   126   64  130 1    
   127   65   66 1    
   128   65   69 1    
   129   65  131 1    
   130   66   67 am   BACKBONE|DICT|INTERRES
   131   66   68 2    
   132   67  132 1    
   133   67  133 1    
   134   69   70 1    
   135   69  134 1    
   136   69  135 1    
   137   70   71 1    
   138   71  136 1    
   139   71  137 1    
@<TRIPOS>SUBSTRUCTURE
     1 UNK         1 GROUP             0       ****    0 ROOT    
