@<TRIPOS>MOLECULE
3R137
137   139    1
SMALL
USER_CHARGES


@<TRIPOS>ATOM
      1 CA         23.9137   -5.7079   -4.3290 C.3       0 UNK        -0.2020 
      2 C          24.4415   -4.9255   -3.1367 C.2       0 UNK         0.4855 
      3 O          23.6676   -4.2501   -2.4574 O.2       0 UNK        -0.5197 
      4 N          25.7555   -4.9966   -2.8862 N.am      1 UNK        -0.4892 
      5 CA         26.4682   -4.2763   -1.8248 C.3       1 UNK         0.0835 
      6 C6         27.9602   -4.6963   -1.7294 C.3       12 UNK        -0.0855 
      7 S7         28.8535   -4.7548   -3.3287 S.3       12 UNK        -0.2931 
      8 C8         30.5655   -4.4139   -2.8131 C.3       12 UNK         0.0378 
      9 C9         31.0144   -3.0030   -3.1732 C.ar      12 UNK        -0.0802 
     10 C10        31.9159   -2.8047   -4.2249 C.ar      12 UNK        -0.0944 
     11 C11        32.4117   -1.5278   -4.5071 C.ar      12 UNK        -0.0787 
     12 C12        31.9800   -0.4414   -3.7433 C.ar      12 UNK        -0.0862 
     13 C13        31.0529   -0.6176   -2.7134 C.ar      12 UNK        -0.0733 
     14 C14        30.5755   -1.9023   -2.4286 C.ar      12 UNK        -0.0832 
     15 C15        30.5981    0.5836   -1.8953 C.3       12 UNK         0.0240 
     16 S16        29.6835    1.7991   -2.9012 S.3       12 UNK        -0.2522 
     17 C17        28.1550    0.8833   -3.2776 C.3       12 UNK        -0.0967 
     18 CA         27.8697    0.7692   -4.7982 C.3       5 UNK         0.0660 
     19 N          27.0752   -0.4261   -5.0978 N.am      5 UNK        -0.4015 
     20 C          26.6461   -0.8195   -6.3056 C.2       4 UNK         0.4946 
     21 O          26.9160   -0.2466   -7.3583 O.2       4 UNK        -0.5353 
     22 CA         25.6876   -2.0187   -6.3378 C.3       4 UNK         0.0277 
     23 CB         26.4504   -3.3476   -6.2230 C.3       4 UNK        -0.1981 
     24 N          24.6740   -1.9187   -5.2859 N.am      4 UNK        -0.4209 
     25 C          23.6785   -1.0194   -5.2875 C.2       3 UNK         0.4942 
     26 O          23.4684   -0.2330   -6.2100 O.2       3 UNK        -0.5208 
     27 CA         22.7944   -0.9555   -4.0319 C.3       3 UNK         0.0250 
     28 CB         21.6457   -1.9725   -4.1199 C.3       3 UNK        -0.1990 
     29 N          23.5592   -1.1658   -2.7996 N.am      3 UNK        -0.4232 
     30 C          24.4431   -0.2798   -2.3145 C.2       2 UNK         0.4993 
     31 O          24.6737    0.8093   -2.8400 O.2       2 UNK        -0.5286 
     32 CA         25.2479   -0.6921   -1.0678 C.3       2 UNK         0.0209 
     33 CB         24.4884   -0.3119    0.2127 C.3       2 UNK        -0.1931 
     34 N          25.5926   -2.1177   -1.0301 N.am      2 UNK        -0.4546 
     35 C          26.2971   -2.7524   -1.9774 C.2       1 UNK         0.5154 
     36 O          26.7488   -2.1874   -2.9729 O.2       1 UNK        -0.5181 
     37 C          27.2104    2.0556   -5.3408 C.2       5 UNK         0.5014 
     38 O          27.8765    2.8505   -6.0057 O.2       5 UNK        -0.5248 
     39 N          25.9061    2.2181   -5.0689 N.am      6 UNK        -0.4434 
     40 CA         25.0846    3.3247   -5.5611 C.3       6 UNK         0.0363 
     41 CB         23.7189    3.3014   -4.8563 C.3       6 UNK        -0.1936 
     42 C          24.9026    3.3193   -7.0890 C.2       6 UNK         0.5081 
     43 O          24.8938    4.3929   -7.6922 O.2       6 UNK        -0.5248 
     44 N          24.7511    2.1282   -7.6857 N.am      7 UNK        -0.4718 
     45 CA         24.6038    1.9421   -9.1302 C.3       7 UNK         0.0273 
     46 CB         24.0783    0.5279   -9.4282 C.3       7 UNK        -0.1935 
     47 C          25.9059    2.2249   -9.8968 C.2       7 UNK         0.5018 
     48 O          25.8967    3.0534  -10.8088 O.2       7 UNK        -0.5186 
     49 N          26.9935    1.5425   -9.5173 N.am      8 UNK        -0.4240 
     50 CA         28.3160    1.6532  -10.1271 C.3       8 UNK         0.0235 
     51 CB         28.3180    1.0818  -11.5624 C.3       8 UNK        -0.2000 
     52 C          29.3289    0.9173   -9.2442 C.2       8 UNK         0.4941 
     53 O          29.4416   -0.3079   -9.3359 O.2       8 UNK        -0.5273 
     54 N          30.0729    1.6681   -8.4223 N.am      9 UNK        -0.4262 
     55 CA         31.1596    1.1766   -7.5675 C.3       9 UNK         0.0264 
     56 CB         31.4731    2.2459   -6.5041 C.3       9 UNK        -0.1955 
     57 C          32.4093    0.7780   -8.3830 C.2       9 UNK         0.5031 
     58 O          33.4790    1.3672   -8.2126 O.2       9 UNK        -0.5390 
     59 N          32.2559   -0.2171   -9.2643 N.am      10 UNK        -0.4204 
     60 CA         33.2574   -0.7181  -10.2110 C.3       10 UNK         0.0237 
     61 CB         32.5275   -1.4608  -11.3465 C.3       10 UNK        -0.1985 
     62 C          34.3625   -1.5737   -9.5539 C.2       10 UNK         0.4970 
     63 O          34.6369   -2.6850  -10.0105 O.2       10 UNK        -0.4914 
     64 N          34.9839   -1.0357   -8.5002 N.am      11 UNK        -0.4285 
     65 CA         36.1436   -1.6162   -7.8049 C.3       11 UNK         0.1007 
     66 C          37.5028   -1.3144   -8.5037 C.2       11 UNK         0.5703 
     67 N          37.5629   -0.4552   -9.5152 N.am      11 UNK        -0.7361 
     68 O          38.5245   -1.8851   -8.1289 O.2       11 UNK        -0.4986 
     69 C69        36.1657   -1.1925   -6.3110 C.3       12 UNK        -0.0947 
     70 S70        34.9987   -2.1410   -5.2793 S.3       12 UNK        -0.2240 
     71 C71        33.4167   -1.3164   -5.6291 C.3       12 UNK         0.0194 
     72 H72        23.1362   -6.4003   -4.0074 H         1 UNK         0.0906 
     73 H73        23.4821   -5.0283   -5.0633 H         1 UNK         0.0906 
     74 H74        24.6987   -6.2837   -4.8190 H         1 UNK         0.0906 
     75 H75        26.3543   -5.5339   -3.4982 H         1 UNK         0.3140 
     76 H76        25.9959   -4.5651   -0.8832 H         1 UNK         0.1085 
     77 H77        28.0197   -5.6955   -1.2950 H         1 UNK         0.0836 
     78 H78        28.4912   -4.0473   -1.0306 H         1 UNK         0.0836 
     79 H79        31.2153   -5.1474   -3.2929 H         1 UNK         0.0731 
     80 H80        30.6833   -4.5761   -1.7408 H         1 UNK         0.0731 
     81 H81        32.2600   -3.6485   -4.8075 H         1 UNK         0.1312 
     82 H82        32.3614    0.5493   -3.9468 H         1 UNK         0.1406 
     83 H83        29.8722   -2.0504   -1.6210 H         1 UNK         0.1631 
     84 H84        31.4744    1.0719   -1.4668 H         1 UNK         0.0717 
     85 H85        29.9780    0.2742   -1.0524 H         1 UNK         0.0717 
     86 H86        28.2506   -0.1116   -2.8439 H         1 UNK         0.0934 
     87 H87        27.3266    1.3507   -2.7429 H         1 UNK         0.0934 
     88 H88        28.8169    0.6342   -5.3246 H         1 UNK         0.0739 
     89 H89        26.8480   -1.0196   -4.3003 H         1 UNK         0.3093 
     90 H90        25.1756   -2.0098   -7.3024 H         1 UNK         0.0818 
     91 H91        27.1933   -3.4365   -7.0168 H         1 UNK         0.0819 
     92 H92        26.9807   -3.4337   -5.2753 H         1 UNK         0.0819 
     93 H93        25.7787   -4.2008   -6.3125 H         1 UNK         0.0819 
     94 H94        24.8189   -2.4759   -4.4564 H         1 UNK         0.3041 
     95 H95        22.3555    0.0439   -3.9889 H         1 UNK         0.0784 
     96 H96        21.0344   -1.7909   -5.0050 H         1 UNK         0.0793 
     97 H97        22.0114   -2.9973   -4.1835 H         1 UNK         0.0793 
     98 H98        20.9881   -1.9043   -3.2532 H         1 UNK         0.0793 
     99 H99        23.4625   -2.0670   -2.3445 H         1 UNK         0.3024 
    100 H100       26.1836   -0.1299   -1.0875 H         1 UNK         0.1171 
    101 H101       25.0883   -0.5038    1.1026 H         1 UNK         0.0786 
    102 H102       24.2381    0.7502    0.2166 H         1 UNK         0.0786 
    103 H103       23.5545   -0.8671    0.3096 H         1 UNK         0.0786 
    104 H104       25.2191   -2.6520   -0.2583 H         1 UNK         0.2977 
    105 H105       25.4460    1.5522   -4.4526 H         1 UNK         0.3127 
    106 H106       25.5895    4.2552   -5.2930 H         1 UNK         0.0770 
    107 H107       23.1766    2.3771   -5.0600 H         1 UNK         0.0814 
    108 H108       23.0921    4.1293   -5.1902 H         1 UNK         0.0814 
    109 H109       23.8286    3.3927   -3.7755 H         1 UNK         0.0814 
    110 H110       24.7256    1.2924   -7.1124 H         1 UNK         0.2983 
    111 H111       23.8545    2.6539   -9.4841 H         1 UNK         0.0947 
    112 H112       24.7572   -0.2441   -9.0660 H         1 UNK         0.0806 
    113 H113       23.9534    0.3759  -10.5011 H         1 UNK         0.0806 
    114 H114       23.1070    0.3613   -8.9619 H         1 UNK         0.0806 
    115 H115       26.9261    0.8901   -8.7323 H         1 UNK         0.3000 
    116 H116       28.5919    2.7088  -10.1730 H         1 UNK         0.0850 
    117 H117       29.3271    1.0719  -11.9768 H         1 UNK         0.0810 
    118 H118       27.7028    1.6772  -12.2365 H         1 UNK         0.0810 
    119 H119       27.9451    0.0571  -11.5876 H         1 UNK         0.0810 
    120 H120       29.9066    2.6642   -8.3975 H         1 UNK         0.3040 
    121 H121       30.8131    0.2809   -7.0470 H         1 UNK         0.0766 
    122 H122       30.6089    2.4413   -5.8695 H         1 UNK         0.0812 
    123 H123       31.7758    3.1900   -6.9582 H         1 UNK         0.0812 
    124 H124       32.2857    1.9279   -5.8512 H         1 UNK         0.0812 
    125 H125       31.3185   -0.6069   -9.3436 H         1 UNK         0.3205 
    126 H126       33.7578    0.1450  -10.6550 H         1 UNK         0.0754 
    127 H127       33.2274   -1.7927  -12.1146 H         1 UNK         0.0769 
    128 H128       31.7962   -0.8168  -11.8359 H         1 UNK         0.0769 
    129 H129       32.0022   -2.3427  -10.9775 H         1 UNK         0.0769 
    130 H130       34.6927   -0.1064   -8.2094 H         1 UNK         0.2981 
    131 H131       36.0488   -2.7033   -7.8377 H         1 UNK         0.0541 
    132 H132       36.7358    0.0233   -9.8324 H         1 UNK         0.3459 
    133 H133       38.4505   -0.2781   -9.9588 H         1 UNK         0.3459 
    134 H134       37.1504   -1.3637   -5.8718 H         1 UNK         0.0612 
    135 H135       35.9767   -0.1232   -6.2012 H         1 UNK         0.0612 
    136 H136       33.5951   -0.2517   -5.7827 H         1 UNK         0.0624 
    137 H137       33.0056   -1.7070   -6.5605 H         1 UNK         0.0624 
@<TRIPOS>BOND
     1    1    2 1    
     2    1   72 1    
     3    1   73 1    
     4    1   74 1    
     5    2    3 2    
     6    2    4 am   BACKBONE|DICT|INTERRES
     7    4    5 1    
     8    4   75 1    
     9    5    6 1    
    10    5   35 1    
    11    5   76 1    
    12    6    7 1    
    13    6   77 1    
    14    6   78 1    
    15    7    8 1    
    16    8    9 1    
    17    8   79 1    
    18    8   80 1    
    19    9   10 ar   
    20    9   14 ar   
    21   10   11 ar   
    22   10   81 1    
    23   11   12 ar   
    24   11   71 1    
    25   12   13 ar   
    26   12   82 1    
    27   13   14 ar   
    28   13   15 1    
    29   14   83 1    
    30   15   16 1    
    31   15   84 1    
    32   15   85 1    
    33   16   17 1    
    34   17   18 1    
    35   17   86 1    
    36   17   87 1    
    37   18   19 1    
    38   18   37 1    
    39   18   88 1    
    40   19   20 am   BACKBONE|DICT|INTERRES
    41   19   89 1    
    42   20   21 2    
    43   20   22 1    
    44   22   23 1    
    45   22   24 1    
    46   22   90 1    
    47   23   91 1    
    48   23   92 1    
    49   23   93 1    
    50   24   25 am   BACKBONE|DICT|INTERRES
    51   24   94 1    
    52   25   26 2    
    53   25   27 1    
    54   27   28 1    
    55   27   29 1    
    56   27   95 1    
    57   28   96 1    
    58   28   97 1    
    59   28   98 1    
    60   29   30 am   BACKBONE|DICT|INTERRES
    61   29   99 1    
    62   30   31 2    
    63   30   32 1    
    64   32   33 1    
    65   32   34 1    
    66   32  100 1    
    67   33  101 1    
    68   33  102 1    
    69   33  103 1    
    70   34   35 am   BACKBONE|DICT|INTERRES
    71   34  104 1    
    72   35   36 2    
    73   37   38 2    
    74   37   39 am   BACKBONE|DICT|INTERRES
    75   39   40 1    
    76   39  105 1    
    77   40   41 1    
    78   40   42 1    
    79   40  106 1    
    80   41  107 1    
    81   41  108 1    
    82   41  109 1    
    83   42   43 2    
    84   42   44 am   BACKBONE|DICT|INTERRES
    85   44   45 1    
    86   44  110 1    
    87   45   46 1    
    88   45   47 1    
    89   45  111 1    
    90   46  112 1    
    91   46  113 1    
    92   46  114 1    
    93   47   48 2    
    94   47   49 am   BACKBONE|DICT|INTERRES
    95   49   50 1    
    96   49  115 1    
    97   50   51 1    
    98   50   52 1    
    99   50  116 1    
   100   51  117 1    
   101   51  118 1    
   102   51  119 1    
   103   52   53 2    
   104   52   54 am   BACKBONE|DICT|INTERRES
   105   54   55 1    
   106   54  120 1    
   107   55   56 1    
   108   55   57 1    
   109   55  121 1    
   110   56  122 1    
   111   56  123 1    
   112   56  124 1    
   113   57   58 2    
   114   57   59 am   BACKBONE|DICT|INTERRES
   115   59   60 1    
   116   59  125 1    
   117   60   61 1    
   118   60   62 1    
   119   60  126 1    
   120   61  127 1    
   121   61  128 1    
   122   61  129 1    
   123   62   63 2    
   124   62   64 am   BACKBONE|DICT|INTERRES
   125   64   65 1    
   126   64  130 1    
   127   65   66 1    
   128   65   69 1    
   129   65  131 1    
   130   66   67 am   BACKBONE|DICT|INTERRES
   131   66   68 2    
   132   67  132 1    
   133   67  133 1    
   134   69   70 1    
   135   69  134 1    
   136   69  135 1    
   137   70   71 1    
   138   71  136 1    
   139   71  137 1    
@<TRIPOS>SUBSTRUCTURE
     1 UNK         1 GROUP             0       ****    0 ROOT    
