@<TRIPOS>MOLECULE
3R137
137   139    1
SMALL
USER_CHARGES


@<TRIPOS>ATOM
      1 CA         29.0959   -0.4651   -2.3147 C.3       0 UNK        -0.2020 
      2 C          29.0007   -0.3613   -0.7946 C.2       0 UNK         0.4855 
      3 O          29.3087    0.6922   -0.2411 O.2       0 UNK        -0.5197 
      4 N          28.5941   -1.4163   -0.0759 N.am      1 UNK        -0.4892 
      5 CA         28.1295   -2.7065   -0.5986 C.3       1 UNK         0.0835 
      6 C6         28.2493   -3.8463    0.4461 C.3       12 UNK        -0.0855 
      7 S7         29.9117   -3.9871    1.1895 S.3       12 UNK        -0.2931 
      8 C8         30.7725   -5.0866    0.0174 C.3       12 UNK         0.0378 
      9 C9         31.0521   -4.4049   -1.3164 C.ar      12 UNK        -0.0802 
     10 C10        31.8610   -3.2642   -1.3666 C.ar      12 UNK        -0.0944 
     11 C11        32.1280   -2.6265   -2.5816 C.ar      12 UNK        -0.0787 
     12 C12        31.5954   -3.1694   -3.7543 C.ar      12 UNK        -0.0862 
     13 C13        30.7688   -4.2976   -3.7275 C.ar      12 UNK        -0.0733 
     14 C14        30.5076   -4.9146   -2.5001 C.ar      12 UNK        -0.0832 
     15 C15        30.1889   -4.8953   -5.0104 C.3       12 UNK         0.0240 
     16 S16        29.8895   -3.6905   -6.3526 S.3       12 UNK        -0.2522 
     17 C17        28.3662   -2.8679   -5.7848 C.3       12 UNK        -0.0967 
     18 CA         27.9115   -1.7696   -6.7836 C.3       5 UNK         0.0660 
     19 N          26.4614   -1.7435   -6.9782 N.am      5 UNK        -0.4015 
     20 C          25.8516   -1.1011   -7.9846 C.2       4 UNK         0.4946 
     21 O          26.4548   -0.4976   -8.8736 O.2       4 UNK        -0.5353 
     22 CA         24.3134   -1.1012   -7.9826 C.3       4 UNK         0.0277 
     23 CB         23.7754   -2.3232   -8.7427 C.3       4 UNK        -0.1981 
     24 N          23.7451   -1.0685   -6.6310 N.am      4 UNK        -0.4209 
     25 C          23.8343   -0.0118   -5.8108 C.2       3 UNK         0.4942 
     26 O          24.3643    1.0519   -6.1247 O.2       3 UNK        -0.5208 
     27 CA         23.2977   -0.1856   -4.3811 C.3       3 UNK         0.0250 
     28 CB         21.7736    0.0104   -4.3473 C.3       3 UNK        -0.1990 
     29 N          23.6486   -1.4671   -3.7565 N.am      3 UNK        -0.4232 
     30 C          24.8962   -1.9318   -3.6006 C.2       2 UNK         0.4993 
     31 O          25.8992   -1.3825   -4.0645 O.2       2 UNK        -0.5286 
     32 CA         25.0476   -3.2585   -2.8385 C.3       2 UNK         0.0209 
     33 CB         24.9094   -4.4503   -3.8000 C.3       2 UNK        -0.1931 
     34 N          26.3444   -3.3361   -2.1597 N.am      2 UNK        -0.4546 
     35 C          26.6774   -2.5882   -1.0992 C.2       1 UNK         0.5154 
     36 O          25.8858   -1.8456   -0.5115 O.2       1 UNK        -0.5181 
     37 C          28.4429   -0.3721   -6.4099 C.2       5 UNK         0.5014 
     38 O          29.4745    0.0434   -6.9366 O.2       5 UNK        -0.5248 
     39 N          27.7011    0.3447   -5.5542 N.am      6 UNK        -0.4434 
     40 CA         27.9602    1.7390   -5.2001 C.3       6 UNK         0.0363 
     41 CB         27.0862    2.1455   -3.9989 C.3       6 UNK        -0.1936 
     42 C          27.7311    2.7040   -6.3761 C.2       6 UNK         0.5081 
     43 O          28.6287    3.4786   -6.7057 O.2       6 UNK        -0.5248 
     44 N          26.5224    2.6764   -6.9528 N.am      7 UNK        -0.4718 
     45 CA         26.0520    3.6906   -7.8969 C.3       7 UNK         0.0273 
     46 CB         24.5152    3.7423   -7.8752 C.3       7 UNK        -0.1935 
     47 C          26.5560    3.4945   -9.3319 C.2       7 UNK         0.5018 
     48 O          26.9746    4.4738   -9.9512 O.2       7 UNK        -0.5186 
     49 N          26.4628    2.2646   -9.8559 N.am      8 UNK        -0.4240 
     50 CA         26.7421    1.9709  -11.2626 C.3       8 UNK         0.0235 
     51 CB         25.7509    0.9221  -11.7982 C.3       8 UNK        -0.2000 
     52 C          28.1919    1.5228  -11.4667 C.2       8 UNK         0.4941 
     53 O          28.8678    2.0697  -12.3393 O.2       8 UNK        -0.5273 
     54 N          28.6450    0.5371  -10.6783 N.am      9 UNK        -0.4262 
     55 CA         29.9950   -0.0235  -10.8064 C.3       9 UNK         0.0264 
     56 CB         30.0547   -1.4206  -10.1684 C.3       9 UNK        -0.1955 
     57 C          31.0842    0.8862  -10.2136 C.2       9 UNK         0.5031 
     58 O          32.1772    0.9500  -10.7777 O.2       9 UNK        -0.5390 
     59 N          30.7684    1.5495   -9.0896 N.am      10 UNK        -0.4204 
     60 CA         31.6822    2.2922   -8.2101 C.3       10 UNK         0.0237 
     61 CB         32.2662    3.5344   -8.9165 C.3       10 UNK        -0.1985 
     62 C          32.7521    1.3618   -7.6036 C.2       10 UNK         0.4970 
     63 O          33.9417    1.6854   -7.6169 O.2       10 UNK        -0.4914 
     64 N          32.2876    0.2081   -7.1070 N.am      11 UNK        -0.4285 
     65 CA         33.0790   -0.9305   -6.6233 C.3       11 UNK         0.1007 
     66 C          34.0163   -1.5213   -7.7216 C.2       11 UNK         0.5703 
     67 N          35.2140   -1.9846   -7.3848 N.am      11 UNK        -0.7361 
     68 O          33.6338   -1.6254   -8.8849 O.2       11 UNK        -0.4986 
     69 C69        33.7655   -0.6648   -5.2479 C.3       12 UNK        -0.0947 
     70 S70        32.6055   -0.1651   -3.9247 S.3       12 UNK        -0.2240 
     71 C71        32.9885   -1.3605   -2.5892 C.3       12 UNK         0.0194 
     72 H72        29.7545   -1.2757   -2.6151 H         1 UNK         0.0906 
     73 H73        28.1159   -0.6332   -2.7574 H         1 UNK         0.0906 
     74 H74        29.5035    0.4533   -2.7365 H         1 UNK         0.0906 
     75 H75        28.5338   -1.3214    0.9274 H         1 UNK         0.3140 
     76 H76        28.7512   -2.9734   -1.4519 H         1 UNK         0.1085 
     77 H77        27.5424   -3.6868    1.2632 H         1 UNK         0.0836 
     78 H78        27.9797   -4.8062    0.0011 H         1 UNK         0.0836 
     79 H79        30.1897   -5.9992   -0.1176 H         1 UNK         0.0731 
     80 H80        31.7217   -5.3935    0.4587 H         1 UNK         0.0731 
     81 H81        32.2728   -2.8656   -0.4492 H         1 UNK         0.1312 
     82 H82        31.8180   -2.7048   -4.6966 H         1 UNK         0.1406 
     83 H83        29.8869   -5.8002   -2.4676 H         1 UNK         0.1631 
     84 H84        29.2566   -5.4212   -4.7985 H         1 UNK         0.0717 
     85 H85        30.8887   -5.6465   -5.3782 H         1 UNK         0.0717 
     86 H86        27.6058   -3.6448   -5.7033 H         1 UNK         0.0934 
     87 H87        28.5047   -2.4786   -4.7738 H         1 UNK         0.0934 
     88 H88        28.3208   -2.0134   -7.7646 H         1 UNK         0.0739 
     89 H89        25.8989   -2.1327   -6.2360 H         1 UNK         0.3093 
     90 H90        23.9864   -0.2018   -8.5095 H         1 UNK         0.0818 
     91 H91        22.6885   -2.2940   -8.8220 H         1 UNK         0.0819 
     92 H92        24.1713   -2.3537   -9.7591 H         1 UNK         0.0819 
     93 H93        24.0528   -3.2594   -8.2568 H         1 UNK         0.0819 
     94 H94        23.2865   -1.9042   -6.2981 H         1 UNK         0.3041 
     95 H95        23.7519    0.5996   -3.7728 H         1 UNK         0.0784 
     96 H96        21.4931    0.9652   -4.7951 H         1 UNK         0.0793 
     97 H97        21.2506   -0.7733   -4.8968 H         1 UNK         0.0793 
     98 H98        21.3962    0.0131   -3.3245 H         1 UNK         0.0793 
     99 H99        22.8827   -1.9952   -3.3629 H         1 UNK         0.3024 
    100 H100       24.2605   -3.3196   -2.0830 H         1 UNK         0.1171 
    101 H101       24.9853   -5.3986   -3.2674 H         1 UNK         0.0786 
    102 H102       23.9402   -4.4416   -4.3005 H         1 UNK         0.0786 
    103 H103       25.6755   -4.4409   -4.5750 H         1 UNK         0.0786 
    104 H104       27.0433   -3.9201   -2.5938 H         1 UNK         0.2977 
    105 H105       26.8900   -0.0999   -5.1315 H         1 UNK         0.3127 
    106 H106       29.0078    1.8205   -4.9020 H         1 UNK         0.0770 
    107 H107       27.2623    3.1868   -3.7260 H         1 UNK         0.0814 
    108 H108       27.2995    1.5452   -3.1170 H         1 UNK         0.0814 
    109 H109       26.0226    2.0429   -4.2149 H         1 UNK         0.0814 
    110 H110       25.8260    2.0113   -6.6180 H         1 UNK         0.2983 
    111 H111       26.4146    4.6637   -7.5568 H         1 UNK         0.0947 
    112 H112       24.1409    4.5280   -8.5328 H         1 UNK         0.0806 
    113 H113       24.1400    3.9518   -6.8733 H         1 UNK         0.0806 
    114 H114       24.0731    2.8018   -8.2063 H         1 UNK         0.0806 
    115 H115       26.1891    1.4828   -9.2704 H         1 UNK         0.3000 
    116 H116       26.5930    2.8749  -11.8579 H         1 UNK         0.0850 
    117 H117       25.9000    0.7626  -12.8669 H         1 UNK         0.0810 
    118 H118       24.7193    1.2467  -11.6613 H         1 UNK         0.0810 
    119 H119       25.8633   -0.0463  -11.3123 H         1 UNK         0.0810 
    120 H120       28.0143    0.1234   -9.9968 H         1 UNK         0.3040 
    121 H121       30.2086   -0.1442  -11.8710 H         1 UNK         0.0766 
    122 H122       30.0198   -1.3719   -9.0821 H         1 UNK         0.0812 
    123 H123       30.9897   -1.9189  -10.4283 H         1 UNK         0.0812 
    124 H124       29.2391   -2.0581  -10.5099 H         1 UNK         0.0812 
    125 H125       29.8586    1.3617   -8.6863 H         1 UNK         0.3205 
    126 H126       31.0807    2.6446   -7.3716 H         1 UNK         0.0754 
    127 H127       32.8409    4.1431   -8.2176 H         1 UNK         0.0769 
    128 H128       31.4754    4.1655   -9.3221 H         1 UNK         0.0769 
    129 H129       32.9340    3.2640   -9.7348 H         1 UNK         0.0769 
    130 H130       31.2798    0.0626   -7.1168 H         1 UNK         0.2981 
    131 H131       32.3413   -1.7160   -6.4819 H         1 UNK         0.0541 
    132 H132       35.7999   -2.3861   -8.0999 H         1 UNK         0.3459 
    133 H133       35.5488   -1.9258   -6.4367 H         1 UNK         0.3459 
    134 H134       34.5227    0.1145   -5.3461 H         1 UNK         0.0612 
    135 H135       34.2903   -1.5609   -4.9155 H         1 UNK         0.0612 
    136 H136       32.8461   -0.8325   -1.6449 H         1 UNK         0.0624 
    137 H137       34.0424   -1.6384   -2.6220 H         1 UNK         0.0624 
@<TRIPOS>BOND
     1    1    2 1    
     2    1   72 1    
     3    1   73 1    
     4    1   74 1    
     5    2    3 2    
     6    2    4 am   BACKBONE|DICT|INTERRES
     7    4    5 1    
     8    4   75 1    
     9    5    6 1    
    10    5   35 1    
    11    5   76 1    
    12    6    7 1    
    13    6   77 1    
    14    6   78 1    
    15    7    8 1    
    16    8    9 1    
    17    8   79 1    
    18    8   80 1    
    19    9   10 ar   
    20    9   14 ar   
    21   10   11 ar   
    22   10   81 1    
    23   11   12 ar   
    24   11   71 1    
    25   12   13 ar   
    26   12   82 1    
    27   13   14 ar   
    28   13   15 1    
    29   14   83 1    
    30   15   16 1    
    31   15   84 1    
    32   15   85 1    
    33   16   17 1    
    34   17   18 1    
    35   17   86 1    
    36   17   87 1    
    37   18   19 1    
    38   18   37 1    
    39   18   88 1    
    40   19   20 am   BACKBONE|DICT|INTERRES
    41   19   89 1    
    42   20   21 2    
    43   20   22 1    
    44   22   23 1    
    45   22   24 1    
    46   22   90 1    
    47   23   91 1    
    48   23   92 1    
    49   23   93 1    
    50   24   25 am   BACKBONE|DICT|INTERRES
    51   24   94 1    
    52   25   26 2    
    53   25   27 1    
    54   27   28 1    
    55   27   29 1    
    56   27   95 1    
    57   28   96 1    
    58   28   97 1    
    59   28   98 1    
    60   29   30 am   BACKBONE|DICT|INTERRES
    61   29   99 1    
    62   30   31 2    
    63   30   32 1    
    64   32   33 1    
    65   32   34 1    
    66   32  100 1    
    67   33  101 1    
    68   33  102 1    
    69   33  103 1    
    70   34   35 am   BACKBONE|DICT|INTERRES
    71   34  104 1    
    72   35   36 2    
    73   37   38 2    
    74   37   39 am   BACKBONE|DICT|INTERRES
    75   39   40 1    
    76   39  105 1    
    77   40   41 1    
    78   40   42 1    
    79   40  106 1    
    80   41  107 1    
    81   41  108 1    
    82   41  109 1    
    83   42   43 2    
    84   42   44 am   BACKBONE|DICT|INTERRES
    85   44   45 1    
    86   44  110 1    
    87   45   46 1    
    88   45   47 1    
    89   45  111 1    
    90   46  112 1    
    91   46  113 1    
    92   46  114 1    
    93   47   48 2    
    94   47   49 am   BACKBONE|DICT|INTERRES
    95   49   50 1    
    96   49  115 1    
    97   50   51 1    
    98   50   52 1    
    99   50  116 1    
   100   51  117 1    
   101   51  118 1    
   102   51  119 1    
   103   52   53 2    
   104   52   54 am   BACKBONE|DICT|INTERRES
   105   54   55 1    
   106   54  120 1    
   107   55   56 1    
   108   55   57 1    
   109   55  121 1    
   110   56  122 1    
   111   56  123 1    
   112   56  124 1    
   113   57   58 2    
   114   57   59 am   BACKBONE|DICT|INTERRES
   115   59   60 1    
   116   59  125 1    
   117   60   61 1    
   118   60   62 1    
   119   60  126 1    
   120   61  127 1    
   121   61  128 1    
   122   61  129 1    
   123   62   63 2    
   124   62   64 am   BACKBONE|DICT|INTERRES
   125   64   65 1    
   126   64  130 1    
   127   65   66 1    
   128   65   69 1    
   129   65  131 1    
   130   66   67 am   BACKBONE|DICT|INTERRES
   131   66   68 2    
   132   67  132 1    
   133   67  133 1    
   134   69   70 1    
   135   69  134 1    
   136   69  135 1    
   137   70   71 1    
   138   71  136 1    
   139   71  137 1    
@<TRIPOS>SUBSTRUCTURE
     1 UNK         1 GROUP             0       ****    0 ROOT    
