@<TRIPOS>MOLECULE
3R137
137   139    1
SMALL
USER_CHARGES


@<TRIPOS>ATOM
      1 CA         26.7436   -0.2526    3.5762 C.3       0 UNK        -0.2020 
      2 C          26.6520    0.1111    2.1019 C.2       0 UNK         0.4855 
      3 O          26.0563    1.1329    1.7602 O.2       0 UNK        -0.5197 
      4 N          27.2398   -0.7162    1.2274 N.am      1 UNK        -0.4892 
      5 CA         27.2541   -0.5297   -0.2308 C.3       1 UNK         0.0835 
      6 C6         28.2984   -1.4501   -0.9100 C.3       12 UNK        -0.0855 
      7 S7         29.9939   -0.9034   -0.5225 S.3       12 UNK        -0.2931 
      8 C8         31.0015   -2.2103   -1.2928 C.3       12 UNK         0.0378 
      9 C9         30.9969   -2.1445   -2.8155 C.ar      12 UNK        -0.0802 
     10 C10        31.5694   -1.0526   -3.4784 C.ar      12 UNK        -0.0944 
     11 C11        31.6080   -1.0085   -4.8759 C.ar      12 UNK        -0.0787 
     12 C12        31.0686   -2.0697   -5.6080 C.ar      12 UNK        -0.0862 
     13 C13        30.5086   -3.1731   -4.9617 C.ar      12 UNK        -0.0733 
     14 C14        30.4633   -3.1991   -3.5641 C.ar      12 UNK        -0.0832 
     15 C15        29.9972   -4.3573   -5.7695 C.3       12 UNK         0.0240 
     16 S16        28.3136   -4.0889   -6.4040 S.3       12 UNK        -0.2522 
     17 C17        28.6181   -3.3715   -8.0597 C.3       12 UNK        -0.0967 
     18 CA         27.8179   -2.0762   -8.3434 C.3       5 UNK         0.0660 
     19 N          26.3878   -2.2364   -8.0735 N.am      5 UNK        -0.4015 
     20 C          25.4405   -1.3416   -8.3807 C.2       4 UNK         0.4946 
     21 O          25.6619   -0.3043   -9.0052 O.2       4 UNK        -0.5353 
     22 CA         24.0180   -1.6197   -7.8641 C.3       4 UNK         0.0277 
     23 CB         23.1697   -2.2757   -8.9648 C.3       4 UNK        -0.1981 
     24 N          23.9614   -2.4408   -6.6464 N.am      4 UNK        -0.4209 
     25 C          24.4964   -2.1050   -5.4638 C.2       3 UNK         0.4942 
     26 O          25.1694   -1.0879   -5.2782 O.2       3 UNK        -0.5208 
     27 CA         24.2798   -3.0930   -4.3133 C.3       3 UNK         0.0250 
     28 CB         25.4168   -4.1280   -4.2545 C.3       3 UNK        -0.1990 
     29 N          24.2149   -2.3574   -3.0544 N.am      3 UNK        -0.4232 
     30 C          23.6010   -2.7751   -1.9419 C.2       2 UNK         0.4993 
     31 O          23.0333   -3.8657   -1.8496 O.2       2 UNK        -0.5286 
     32 CA         23.6413   -1.8244   -0.7274 C.3       2 UNK         0.0209 
     33 CB         22.8261   -2.3517    0.4692 C.3       2 UNK        -0.1931 
     34 N          25.0109   -1.5566   -0.2791 N.am      2 UNK        -0.4546 
     35 C          25.8610   -0.7058   -0.8696 C.2       1 UNK         0.5154 
     36 O          25.5722   -0.0614   -1.8782 O.2       1 UNK        -0.5181 
     37 C          28.4317   -0.8514   -7.6360 C.2       5 UNK         0.5014 
     38 O          29.3299   -0.2297   -8.2033 O.2       5 UNK        -0.5248 
     39 N          27.9320   -0.4977   -6.4428 N.am      6 UNK        -0.4434 
     40 CA         28.3720    0.6870   -5.7071 C.3       6 UNK         0.0363 
     41 CB         28.1075    0.5025   -4.2111 C.3       6 UNK        -0.1936 
     42 C          27.7309    1.9753   -6.2356 C.2       6 UNK         0.5081 
     43 O          28.3874    3.0155   -6.2185 O.2       6 UNK        -0.5248 
     44 N          26.4946    1.8854   -6.7476 N.am      7 UNK        -0.4718 
     45 CA         25.8189    2.9805   -7.4524 C.3       7 UNK         0.0273 
     46 CB         24.3309    2.6441   -7.6413 C.3       7 UNK        -0.1935 
     47 C          26.4934    3.2972   -8.7995 C.2       7 UNK         0.5018 
     48 O          26.6374    4.4695   -9.1470 O.2       7 UNK        -0.5186 
     49 N          26.9357    2.2471   -9.5059 N.am      8 UNK        -0.4240 
     50 CA         27.7480    2.3314  -10.7227 C.3       8 UNK         0.0235 
     51 CB         27.6978    0.9732  -11.4426 C.3       8 UNK        -0.2000 
     52 C          29.2136    2.7370  -10.4654 C.2       8 UNK         0.4941 
     53 O          29.8970    3.1160  -11.4172 O.2       8 UNK        -0.5273 
     54 N          29.6726    2.6247   -9.2083 N.am      9 UNK        -0.4262 
     55 CA         31.0491    2.8125   -8.7292 C.3       9 UNK         0.0264 
     56 CB         31.4888    4.2851   -8.8659 C.3       9 UNK        -0.1955 
     57 C          32.0416    1.8200   -9.3704 C.2       9 UNK         0.5031 
     58 O          33.1825    2.1811   -9.6657 O.2       9 UNK        -0.5390 
     59 N          31.5850    0.5785   -9.5669 N.am      10 UNK        -0.4204 
     60 CA         32.3170   -0.5212  -10.1851 C.3       10 UNK         0.0237 
     61 CB         31.3866   -1.2122  -11.2007 C.3       10 UNK        -0.1985 
     62 C          32.8035   -1.4756   -9.0859 C.2       10 UNK         0.4970 
     63 O          32.3192   -2.6045   -8.9891 O.2       10 UNK        -0.4914 
     64 N          33.7258   -0.9879   -8.2460 N.am      11 UNK        -0.4285 
     65 CA         34.2942   -1.7439   -7.1168 C.3       11 UNK         0.1007 
     66 C          35.2830   -2.8748   -7.5330 C.2       11 UNK         0.5703 
     67 N          35.7586   -2.9261   -8.7722 N.am      11 UNK        -0.7361 
     68 O          35.6209   -3.7266   -6.7145 O.2       11 UNK        -0.4986 
     69 C69        34.9460   -0.8187   -6.0537 C.3       12 UNK        -0.0947 
     70 S70        33.9503    0.5060   -5.2676 S.3       12 UNK        -0.2240 
     71 C71        32.1818    0.2027   -5.6010 C.3       12 UNK         0.0194 
     72 H72        27.2274    0.5507    4.1312 H         1 UNK         0.0906 
     73 H73        25.7459   -0.3989    3.9891 H         1 UNK         0.0906 
     74 H74        27.3148   -1.1666    3.7372 H         1 UNK         0.0906 
     75 H75        27.7432   -1.5229    1.5692 H         1 UNK         0.3140 
     76 H76        27.5383    0.5071   -0.4271 H         1 UNK         0.1085 
     77 H77        28.1682   -2.4864   -0.5927 H         1 UNK         0.0836 
     78 H78        28.1803   -1.4530   -1.9931 H         1 UNK         0.0836 
     79 H79        32.0297   -2.1074   -0.9431 H         1 UNK         0.0731 
     80 H80        30.6577   -3.1837   -0.9392 H         1 UNK         0.0731 
     81 H81        31.9830   -0.2342   -2.9048 H         1 UNK         0.1312 
     82 H82        31.0899   -2.0413   -6.6875 H         1 UNK         0.1406 
     83 H83        30.0329   -4.0534   -3.0594 H         1 UNK         0.1631 
     84 H84        29.9867   -5.2526   -5.1460 H         1 UNK         0.0717 
     85 H85        30.6813   -4.5778   -6.5905 H         1 UNK         0.0717 
     86 H86        29.6853   -3.2052   -8.2175 H         1 UNK         0.0934 
     87 H87        28.3400   -4.1292   -8.7939 H         1 UNK         0.0934 
     88 H88        27.9069   -1.8763   -9.4134 H         1 UNK         0.0739 
     89 H89        26.1276   -3.0580   -7.5479 H         1 UNK         0.3093 
     90 H90        23.5728   -0.6521   -7.6232 H         1 UNK         0.0818 
     91 H91        22.1293   -2.3802   -8.6564 H         1 UNK         0.0819 
     92 H92        23.1756   -1.6718   -9.8736 H         1 UNK         0.0819 
     93 H93        23.5443   -3.2654   -9.2293 H         1 UNK         0.0819 
     94 H94        23.4386   -3.3030   -6.7122 H         1 UNK         0.3041 
     95 H95        23.3292   -3.6064   -4.4741 H         1 UNK         0.0784 
     96 H96        25.4974   -4.6796   -5.1918 H         1 UNK         0.0793 
     97 H97        26.3805   -3.6526   -4.0664 H         1 UNK         0.0793 
     98 H98        25.2481   -4.8604   -3.4650 H         1 UNK         0.0793 
     99 H99        24.6656   -1.4446   -3.0599 H         1 UNK         0.3024 
    100 H100       23.1859   -0.8837   -1.0464 H         1 UNK         0.1171 
    101 H101       21.7877   -2.5304    0.1867 H         1 UNK         0.0786 
    102 H102       22.8168   -1.6337    1.2896 H         1 UNK         0.0786 
    103 H103       23.2275   -3.2917    0.8500 H         1 UNK         0.0786 
    104 H104       25.3295   -2.0573    0.5378 H         1 UNK         0.2977 
    105 H105       27.1612   -1.0220   -6.0442 H         1 UNK         0.3127 
    106 H106       29.4480    0.7935   -5.8380 H         1 UNK         0.0770 
    107 H107       27.0502    0.3416   -4.0044 H         1 UNK         0.0814 
    108 H108       28.4274    1.3758   -3.6415 H         1 UNK         0.0814 
    109 H109       28.6667   -0.3521   -3.8357 H         1 UNK         0.0814 
    110 H110       26.0239    0.9911   -6.7212 H         1 UNK         0.2983 
    111 H111       25.8881    3.8752   -6.8294 H         1 UNK         0.0947 
    112 H112       23.8015    3.4796   -8.1013 H         1 UNK         0.0806 
    113 H113       23.8454    2.4393   -6.6870 H         1 UNK         0.0806 
    114 H114       24.1860    1.7769   -8.2852 H         1 UNK         0.0806 
    115 H115       26.6795    1.3142   -9.1906 H         1 UNK         0.3000 
    116 H116       27.3079    3.0864  -11.3776 H         1 UNK         0.0850 
    117 H117       28.2461    1.0082  -12.3849 H         1 UNK         0.0810 
    118 H118       26.6726    0.6829  -11.6737 H         1 UNK         0.0810 
    119 H119       28.1411    0.1818  -10.8373 H         1 UNK         0.0810 
    120 H120       29.0203    2.2897   -8.5127 H         1 UNK         0.3040 
    121 H121       31.0308    2.5737   -7.6647 H         1 UNK         0.0766 
    122 H122       32.4553    4.4497   -8.3880 H         1 UNK         0.0812 
    123 H123       30.7741    4.9566   -8.3901 H         1 UNK         0.0812 
    124 H124       31.5881    4.5838   -9.9098 H         1 UNK         0.0812 
    125 H125       30.6686    0.3395   -9.1831 H         1 UNK         0.3205 
    126 H126       33.1921   -0.1501  -10.7225 H         1 UNK         0.0754 
    127 H127       31.8902   -2.0480  -11.6880 H         1 UNK         0.0769 
    128 H128       31.0744   -0.5197  -11.9829 H         1 UNK         0.0769 
    129 H129       30.4859   -1.6029  -10.7246 H         1 UNK         0.0769 
    130 H130       34.0717   -0.0485   -8.3820 H         1 UNK         0.2981 
    131 H131       33.4785   -2.2704   -6.6271 H         1 UNK         0.0541 
    132 H132       35.4928   -2.2334   -9.4528 H         1 UNK         0.3459 
    133 H133       36.3940   -3.6661   -9.0259 H         1 UNK         0.3459 
    134 H134       35.3257   -1.4260   -5.2297 H         1 UNK         0.0612 
    135 H135       35.8244   -0.3356   -6.4853 H         1 UNK         0.0612 
    136 H136       31.9931    0.1530   -6.6713 H         1 UNK         0.0624 
    137 H137       31.6430    1.0850   -5.2550 H         1 UNK         0.0624 
@<TRIPOS>BOND
     1    1    2 1    
     2    1   72 1    
     3    1   73 1    
     4    1   74 1    
     5    2    3 2    
     6    2    4 am   BACKBONE|DICT|INTERRES
     7    4    5 1    
     8    4   75 1    
     9    5    6 1    
    10    5   35 1    
    11    5   76 1    
    12    6    7 1    
    13    6   77 1    
    14    6   78 1    
    15    7    8 1    
    16    8    9 1    
    17    8   79 1    
    18    8   80 1    
    19    9   10 ar   
    20    9   14 ar   
    21   10   11 ar   
    22   10   81 1    
    23   11   12 ar   
    24   11   71 1    
    25   12   13 ar   
    26   12   82 1    
    27   13   14 ar   
    28   13   15 1    
    29   14   83 1    
    30   15   16 1    
    31   15   84 1    
    32   15   85 1    
    33   16   17 1    
    34   17   18 1    
    35   17   86 1    
    36   17   87 1    
    37   18   19 1    
    38   18   37 1    
    39   18   88 1    
    40   19   20 am   BACKBONE|DICT|INTERRES
    41   19   89 1    
    42   20   21 2    
    43   20   22 1    
    44   22   23 1    
    45   22   24 1    
    46   22   90 1    
    47   23   91 1    
    48   23   92 1    
    49   23   93 1    
    50   24   25 am   BACKBONE|DICT|INTERRES
    51   24   94 1    
    52   25   26 2    
    53   25   27 1    
    54   27   28 1    
    55   27   29 1    
    56   27   95 1    
    57   28   96 1    
    58   28   97 1    
    59   28   98 1    
    60   29   30 am   BACKBONE|DICT|INTERRES
    61   29   99 1    
    62   30   31 2    
    63   30   32 1    
    64   32   33 1    
    65   32   34 1    
    66   32  100 1    
    67   33  101 1    
    68   33  102 1    
    69   33  103 1    
    70   34   35 am   BACKBONE|DICT|INTERRES
    71   34  104 1    
    72   35   36 2    
    73   37   38 2    
    74   37   39 am   BACKBONE|DICT|INTERRES
    75   39   40 1    
    76   39  105 1    
    77   40   41 1    
    78   40   42 1    
    79   40  106 1    
    80   41  107 1    
    81   41  108 1    
    82   41  109 1    
    83   42   43 2    
    84   42   44 am   BACKBONE|DICT|INTERRES
    85   44   45 1    
    86   44  110 1    
    87   45   46 1    
    88   45   47 1    
    89   45  111 1    
    90   46  112 1    
    91   46  113 1    
    92   46  114 1    
    93   47   48 2    
    94   47   49 am   BACKBONE|DICT|INTERRES
    95   49   50 1    
    96   49  115 1    
    97   50   51 1    
    98   50   52 1    
    99   50  116 1    
   100   51  117 1    
   101   51  118 1    
   102   51  119 1    
   103   52   53 2    
   104   52   54 am   BACKBONE|DICT|INTERRES
   105   54   55 1    
   106   54  120 1    
   107   55   56 1    
   108   55   57 1    
   109   55  121 1    
   110   56  122 1    
   111   56  123 1    
   112   56  124 1    
   113   57   58 2    
   114   57   59 am   BACKBONE|DICT|INTERRES
   115   59   60 1    
   116   59  125 1    
   117   60   61 1    
   118   60   62 1    
   119   60  126 1    
   120   61  127 1    
   121   61  128 1    
   122   61  129 1    
   123   62   63 2    
   124   62   64 am   BACKBONE|DICT|INTERRES
   125   64   65 1    
   126   64  130 1    
   127   65   66 1    
   128   65   69 1    
   129   65  131 1    
   130   66   67 am   BACKBONE|DICT|INTERRES
   131   66   68 2    
   132   67  132 1    
   133   67  133 1    
   134   69   70 1    
   135   69  134 1    
   136   69  135 1    
   137   70   71 1    
   138   71  136 1    
   139   71  137 1    
@<TRIPOS>SUBSTRUCTURE
     1 UNK         1 GROUP             0       ****    0 ROOT    
