@<TRIPOS>MOLECULE
3R137
137   139    1
SMALL
USER_CHARGES


@<TRIPOS>ATOM
      1 CA         27.0804   -6.8927   -3.1577 C.3       0 UNK        -0.2020 
      2 C          26.6401   -5.7598   -2.2439 C.2       0 UNK         0.4855 
      3 O          25.4559   -5.4236   -2.2146 O.2       0 UNK        -0.5197 
      4 N          27.5844   -5.1682   -1.4993 N.am      1 UNK        -0.4892 
      5 CA         27.3791   -4.0177   -0.6123 C.3       1 UNK         0.0835 
      6 C6         28.6483   -3.6277    0.2094 C.3       12 UNK        -0.0855 
      7 S7         30.3290   -3.9777   -0.4576 S.3       12 UNK        -0.2931 
      8 C8         30.3286   -3.5160   -2.2250 C.3       12 UNK         0.0378 
      9 C9         30.7393   -2.0752   -2.5154 C.ar      12 UNK        -0.0802 
     10 C10        31.6468   -1.8086   -3.5472 C.ar      12 UNK        -0.0944 
     11 C11        31.9690   -0.4912   -3.9014 C.ar      12 UNK        -0.0787 
     12 C12        31.4060    0.5621   -3.1749 C.ar      12 UNK        -0.0862 
     13 C13        30.5077    0.3122   -2.1349 C.ar      12 UNK        -0.0733 
     14 C14        30.1743   -1.0062   -1.8160 C.ar      12 UNK        -0.0832 
     15 C15        29.8763    1.4661   -1.3693 C.3       12 UNK         0.0240 
     16 S16        28.6754    2.3879   -2.3824 S.3       12 UNK        -0.2522 
     17 C17        27.5320    1.0693   -2.9159 C.3       12 UNK        -0.0967 
     18 CA         27.7202    0.7004   -4.4105 C.3       5 UNK         0.0660 
     19 N          27.3931   -0.7092   -4.6783 N.am      5 UNK        -0.4015 
     20 C          27.4597   -1.3193   -5.8738 C.2       4 UNK         0.4946 
     21 O          27.8444   -0.7653   -6.9023 O.2       4 UNK        -0.5353 
     22 CA         26.9514   -2.7670   -5.9599 C.3       4 UNK         0.0277 
     23 CB         28.0564   -3.7705   -5.6122 C.3       4 UNK        -0.1981 
     24 N          25.7981   -2.9783   -5.0852 N.am      4 UNK        -0.4209 
     25 C          24.5345   -2.7014   -5.4365 C.2       3 UNK         0.4942 
     26 O          24.1991   -2.3433   -6.5655 O.2       3 UNK        -0.5208 
     27 CA         23.4613   -2.8156   -4.3406 C.3       3 UNK         0.0250 
     28 CB         22.8491   -4.2251   -4.3249 C.3       3 UNK        -0.1990 
     29 N          23.9654   -2.4791   -3.0061 N.am      3 UNK        -0.4232 
     30 C          24.3548   -1.2496   -2.6368 C.2       2 UNK         0.4993 
     31 O          24.3180   -0.2683   -3.3804 O.2       2 UNK        -0.5286 
     32 CA         24.9202   -1.0902   -1.2132 C.3       2 UNK         0.0209 
     33 CB         23.7875   -0.7696   -0.2250 C.3       2 UNK        -0.1931 
     34 N          25.6833   -2.2440   -0.7196 N.am      2 UNK        -0.4546 
     35 C          26.7359   -2.8089   -1.3300 C.2       1 UNK         0.5154 
     36 O          27.1761   -2.4262   -2.4162 O.2       1 UNK        -0.5181 
     37 C          26.9492    1.6885   -5.3127 C.2       5 UNK         0.5014 
     38 O          27.5004    2.7208   -5.6948 O.2       5 UNK        -0.5248 
     39 N          25.7098    1.3334   -5.6826 N.am      6 UNK        -0.4434 
     40 CA         24.8665    2.0507   -6.6432 C.3       6 UNK         0.0363 
     41 CB         23.5126    1.3311   -6.7479 C.3       6 UNK        -0.1936 
     42 C          25.4899    2.2308   -8.0447 C.2       6 UNK         0.5081 
     43 O          25.1001    3.1617   -8.7500 O.2       6 UNK        -0.5248 
     44 N          26.4486    1.3714   -8.4228 N.am      7 UNK        -0.4718 
     45 CA         27.2237    1.4798   -9.6628 C.3       7 UNK         0.0273 
     46 CB         27.5630    0.0666  -10.1624 C.3       7 UNK        -0.1935 
     47 C          28.4982    2.3353   -9.5047 C.2       7 UNK         0.5018 
     48 O          29.2379    2.4839  -10.4799 O.2       7 UNK        -0.5186 
     49 N          28.7421    2.8852   -8.3037 N.am      8 UNK        -0.4240 
     50 CA         29.8636    3.7528   -7.9316 C.3       8 UNK         0.0235 
     51 CB         29.7088    5.1436   -8.5895 C.3       8 UNK        -0.2000 
     52 C          31.2183    3.0716   -8.1944 C.2       8 UNK         0.4941 
     53 O          31.5167    2.0647   -7.5539 O.2       8 UNK        -0.5273 
     54 N          32.0046    3.6078   -9.1369 N.am      9 UNK        -0.4262 
     55 CA         33.2963    3.0615   -9.5596 C.3       9 UNK         0.0264 
     56 CB         34.0161    4.0986  -10.4372 C.3       9 UNK        -0.1955 
     57 C          33.1960    1.7118  -10.2961 C.2       9 UNK         0.5031 
     58 O          34.1942    0.9927  -10.3528 O.2       9 UNK        -0.5390 
     59 N          32.0156    1.3805  -10.8389 N.am      10 UNK        -0.4204 
     60 CA         31.7469    0.1396  -11.5682 C.3       10 UNK         0.0237 
     61 CB         30.8855    0.4636  -12.8038 C.3       10 UNK        -0.1985 
     62 C          31.1069   -0.9369  -10.6693 C.2       10 UNK         0.4970 
     63 O          30.3476   -1.7659  -11.1730 O.2       10 UNK        -0.4914 
     64 N          31.4142   -0.9200   -9.3640 N.am      11 UNK        -0.4285 
     65 CA         30.9254   -1.8925   -8.3722 C.3       11 UNK         0.1007 
     66 C          31.3943   -3.3657   -8.5820 C.2       11 UNK         0.5703 
     67 N          32.4253   -3.6307   -9.3768 N.am      11 UNK        -0.7361 
     68 O          30.8045   -4.2853   -8.0213 O.2       11 UNK        -0.4986 
     69 C69        31.1712   -1.3998   -6.9210 C.3       12 UNK        -0.0947 
     70 S70        32.9319   -1.3598   -6.4313 S.3       12 UNK        -0.2240 
     71 C71        32.9221   -0.1620   -5.0523 C.3       12 UNK         0.0194 
     72 H72        28.1626   -7.0211   -3.1567 H         1 UNK         0.0906 
     73 H73        26.6249   -7.8296   -2.8384 H         1 UNK         0.0906 
     74 H74        26.7643   -6.6921   -4.1811 H         1 UNK         0.0906 
     75 H75        28.5398   -5.4918   -1.5543 H         1 UNK         0.3140 
     76 H76        26.6370   -4.3602    0.1128 H         1 UNK         0.1085 
     77 H77        28.6101   -2.5851    0.5293 H         1 UNK         0.0836 
     78 H78        28.6076   -4.1829    1.1480 H         1 UNK         0.0836 
     79 H79        29.3556   -3.6972   -2.6632 H         1 UNK         0.0731 
     80 H80        31.0103   -4.1995   -2.7332 H         1 UNK         0.0731 
     81 H81        32.0811   -2.6321   -4.0962 H         1 UNK         0.1312 
     82 H82        31.6495    1.5844   -3.4311 H         1 UNK         0.1406 
     83 H83        29.4581   -1.1984   -1.0328 H         1 UNK         0.1631 
     84 H84        30.6583    2.1502   -1.0368 H         1 UNK         0.0717 
     85 H85        29.3790    1.1085   -0.4663 H         1 UNK         0.0717 
     86 H86        27.6957    0.1986   -2.2829 H         1 UNK         0.0934 
     87 H87        26.5087    1.3882   -2.7081 H         1 UNK         0.0934 
     88 H88        28.7778    0.7978   -4.6655 H         1 UNK         0.0739 
     89 H89        27.1443   -1.2737   -3.8698 H         1 UNK         0.3093 
     90 H90        26.6548   -2.9511   -6.9951 H         1 UNK         0.0818 
     91 H91        28.4214   -3.6248   -4.6000 H         1 UNK         0.0819 
     92 H92        27.7044   -4.7980   -5.7012 H         1 UNK         0.0819 
     93 H93        28.9051   -3.6611   -6.2857 H         1 UNK         0.0819 
     94 H94        25.9922   -3.2280   -4.1233 H         1 UNK         0.3041 
     95 H95        22.6687   -2.1048   -4.5848 H         1 UNK         0.0784 
     96 H96        22.4202   -4.4732   -5.2968 H         1 UNK         0.0793 
     97 H97        23.5933   -4.9881   -4.0947 H         1 UNK         0.0793 
     98 H98        22.0486   -4.3032   -3.5890 H         1 UNK         0.0793 
     99 H99        24.0690   -3.2416   -2.3494 H         1 UNK         0.3024 
    100 H100       25.5980   -0.2369   -1.2268 H         1 UNK         0.1171 
    101 H101       23.2157    0.0992   -0.5550 H         1 UNK         0.0786 
    102 H102       24.1775   -0.5385    0.7665 H         1 UNK         0.0786 
    103 H103       23.0885   -1.6012   -0.1268 H         1 UNK         0.0786 
    104 H104       25.3763   -2.6284    0.1628 H         1 UNK         0.2977 
    105 H105       25.3112    0.5020   -5.2624 H         1 UNK         0.3127 
    106 H106       24.6941    3.0494   -6.2371 H         1 UNK         0.0770 
    107 H107       23.6253    0.3200   -7.1411 H         1 UNK         0.0814 
    108 H108       22.8354    1.8669   -7.4145 H         1 UNK         0.0814 
    109 H109       23.0227    1.2603   -5.7764 H         1 UNK         0.0814 
    110 H110       26.7442    0.6402   -7.7806 H         1 UNK         0.2983 
    111 H111       26.6131    1.9633  -10.4283 H         1 UNK         0.0947 
    112 H112       28.0440    0.1009  -11.1402 H         1 UNK         0.0806 
    113 H113       26.6676   -0.5462  -10.2657 H         1 UNK         0.0806 
    114 H114       28.2437   -0.4463   -9.4843 H         1 UNK         0.0806 
    115 H115       28.1039    2.6764   -7.5409 H         1 UNK         0.3000 
    116 H116       29.8001    3.8897   -6.8510 H         1 UNK         0.0850 
    117 H117       30.5084    5.8187   -8.2814 H         1 UNK         0.0810 
    118 H118       28.7699    5.6094   -8.2897 H         1 UNK         0.0810 
    119 H119       29.7122    5.0927   -9.6789 H         1 UNK         0.0810 
    120 H120       31.6714    4.4248   -9.6283 H         1 UNK         0.3040 
    121 H121       33.8978    2.8954   -8.6632 H         1 UNK         0.0766 
    122 H122       34.1717    5.0348   -9.9005 H         1 UNK         0.0812 
    123 H123       33.4539    4.3195  -11.3454 H         1 UNK         0.0812 
    124 H124       34.9988    3.7365  -10.7429 H         1 UNK         0.0812 
    125 H125       31.2160    1.9926  -10.6983 H         1 UNK         0.3205 
    126 H126       32.6853   -0.2834  -11.9325 H         1 UNK         0.0754 
    127 H127       30.7266   -0.4231  -13.4188 H         1 UNK         0.0769 
    128 H128       31.3674    1.2092  -13.4364 H         1 UNK         0.0769 
    129 H129       29.9045    0.8479  -12.5244 H         1 UNK         0.0769 
    130 H130       32.0387   -0.2083   -9.0124 H         1 UNK         0.2981 
    131 H131       29.8424   -1.9261   -8.5003 H         1 UNK         0.0541 
    132 H132       32.9241   -2.8839   -9.8318 H         1 UNK         0.3459 
    133 H133       32.7144   -4.5870   -9.5073 H         1 UNK         0.3459 
    134 H134       30.6368   -2.0360   -6.2153 H         1 UNK         0.0612 
    135 H135       30.7439   -0.4040   -6.7935 H         1 UNK         0.0612 
    136 H136       32.6822    0.8190   -5.4645 H         1 UNK         0.0624 
    137 H137       33.9340   -0.0891   -4.6527 H         1 UNK         0.0624 
@<TRIPOS>BOND
     1    1    2 1    
     2    1   72 1    
     3    1   73 1    
     4    1   74 1    
     5    2    3 2    
     6    2    4 am   BACKBONE|DICT|INTERRES
     7    4    5 1    
     8    4   75 1    
     9    5    6 1    
    10    5   35 1    
    11    5   76 1    
    12    6    7 1    
    13    6   77 1    
    14    6   78 1    
    15    7    8 1    
    16    8    9 1    
    17    8   79 1    
    18    8   80 1    
    19    9   10 ar   
    20    9   14 ar   
    21   10   11 ar   
    22   10   81 1    
    23   11   12 ar   
    24   11   71 1    
    25   12   13 ar   
    26   12   82 1    
    27   13   14 ar   
    28   13   15 1    
    29   14   83 1    
    30   15   16 1    
    31   15   84 1    
    32   15   85 1    
    33   16   17 1    
    34   17   18 1    
    35   17   86 1    
    36   17   87 1    
    37   18   19 1    
    38   18   37 1    
    39   18   88 1    
    40   19   20 am   BACKBONE|DICT|INTERRES
    41   19   89 1    
    42   20   21 2    
    43   20   22 1    
    44   22   23 1    
    45   22   24 1    
    46   22   90 1    
    47   23   91 1    
    48   23   92 1    
    49   23   93 1    
    50   24   25 am   BACKBONE|DICT|INTERRES
    51   24   94 1    
    52   25   26 2    
    53   25   27 1    
    54   27   28 1    
    55   27   29 1    
    56   27   95 1    
    57   28   96 1    
    58   28   97 1    
    59   28   98 1    
    60   29   30 am   BACKBONE|DICT|INTERRES
    61   29   99 1    
    62   30   31 2    
    63   30   32 1    
    64   32   33 1    
    65   32   34 1    
    66   32  100 1    
    67   33  101 1    
    68   33  102 1    
    69   33  103 1    
    70   34   35 am   BACKBONE|DICT|INTERRES
    71   34  104 1    
    72   35   36 2    
    73   37   38 2    
    74   37   39 am   BACKBONE|DICT|INTERRES
    75   39   40 1    
    76   39  105 1    
    77   40   41 1    
    78   40   42 1    
    79   40  106 1    
    80   41  107 1    
    81   41  108 1    
    82   41  109 1    
    83   42   43 2    
    84   42   44 am   BACKBONE|DICT|INTERRES
    85   44   45 1    
    86   44  110 1    
    87   45   46 1    
    88   45   47 1    
    89   45  111 1    
    90   46  112 1    
    91   46  113 1    
    92   46  114 1    
    93   47   48 2    
    94   47   49 am   BACKBONE|DICT|INTERRES
    95   49   50 1    
    96   49  115 1    
    97   50   51 1    
    98   50   52 1    
    99   50  116 1    
   100   51  117 1    
   101   51  118 1    
   102   51  119 1    
   103   52   53 2    
   104   52   54 am   BACKBONE|DICT|INTERRES
   105   54   55 1    
   106   54  120 1    
   107   55   56 1    
   108   55   57 1    
   109   55  121 1    
   110   56  122 1    
   111   56  123 1    
   112   56  124 1    
   113   57   58 2    
   114   57   59 am   BACKBONE|DICT|INTERRES
   115   59   60 1    
   116   59  125 1    
   117   60   61 1    
   118   60   62 1    
   119   60  126 1    
   120   61  127 1    
   121   61  128 1    
   122   61  129 1    
   123   62   63 2    
   124   62   64 am   BACKBONE|DICT|INTERRES
   125   64   65 1    
   126   64  130 1    
   127   65   66 1    
   128   65   69 1    
   129   65  131 1    
   130   66   67 am   BACKBONE|DICT|INTERRES
   131   66   68 2    
   132   67  132 1    
   133   67  133 1    
   134   69   70 1    
   135   69  134 1    
   136   69  135 1    
   137   70   71 1    
   138   71  136 1    
   139   71  137 1    
@<TRIPOS>SUBSTRUCTURE
     1 UNK         1 GROUP             0       ****    0 ROOT    
