@<TRIPOS>MOLECULE
3R137
137   139    1
SMALL
USER_CHARGES


@<TRIPOS>ATOM
      1 CA         27.7879   -1.6941    2.4788 C.3       0 UNK        -0.2020 
      2 C          27.4209   -1.7645    1.0039 C.2       0 UNK         0.4855 
      3 O          26.4734   -2.4634    0.6469 O.2       0 UNK        -0.5197 
      4 N          28.1597   -1.0355    0.1546 N.am      1 UNK        -0.4892 
      5 CA         28.0168   -0.9696   -1.3120 C.3       1 UNK         0.0835 
      6 C6         28.2395   -2.3376   -2.0221 C.3       12 UNK        -0.0855 
      7 S7         29.9323   -2.9567   -1.7323 S.3       12 UNK        -0.2931 
      8 C8         29.9613   -4.4855   -2.7232 C.3       12 UNK         0.0378 
      9 C9         30.4514   -4.2754   -4.1536 C.ar      12 UNK        -0.0802 
     10 C10        31.7204   -3.7362   -4.3960 C.ar      12 UNK        -0.0944 
     11 C11        32.2165   -3.6408   -5.6998 C.ar      12 UNK        -0.0787 
     12 C12        31.4275   -4.0783   -6.7667 C.ar      12 UNK        -0.0862 
     13 C13        30.1583   -4.6225   -6.5479 C.ar      12 UNK        -0.0733 
     14 C14        29.6760   -4.7122   -5.2335 C.ar      12 UNK        -0.0832 
     15 C15        29.3933   -5.1806   -7.7502 C.3       12 UNK         0.0240 
     16 S16        27.5896   -5.3569   -7.5162 S.3       12 UNK        -0.2522 
     17 C17        26.9192   -4.1600   -8.7232 C.3       12 UNK        -0.0967 
     18 CA         26.5808   -2.7769   -8.1156 C.3       5 UNK         0.0660 
     19 N          25.7084   -2.8953   -6.9406 N.am      5 UNK        -0.4015 
     20 C          25.1237   -1.8968   -6.2675 C.2       4 UNK         0.4946 
     21 O          25.3239   -0.7000   -6.4985 O.2       4 UNK        -0.5353 
     22 CA         24.1572   -2.3247   -5.1535 C.3       4 UNK         0.0277 
     23 CB         24.8406   -3.2136   -4.0953 C.3       4 UNK        -0.1981 
     24 N          23.6040   -1.1380   -4.5088 N.am      4 UNK        -0.4209 
     25 C          22.3473   -1.0013   -4.0695 C.2       3 UNK         0.4942 
     26 O          21.4992   -1.8933   -4.1421 O.2       3 UNK        -0.5208 
     27 CA         21.9745    0.3674   -3.4585 C.3       3 UNK         0.0250 
     28 CB         20.6932    0.3159   -2.5976 C.3       3 UNK        -0.1990 
     29 N          23.0796    0.9945   -2.7194 N.am      3 UNK        -0.4232 
     30 C          23.7133    0.5023   -1.6439 C.2       2 UNK         0.4993 
     31 O          23.4003   -0.5383   -1.0608 O.2       2 UNK        -0.5286 
     32 CA         24.9018    1.3303   -1.1254 C.3       2 UNK         0.0209 
     33 CB         24.5182    2.0849    0.1583 C.3       2 UNK        -0.1931 
     34 N          26.0858    0.5071   -0.8657 N.am      2 UNK        -0.4546 
     35 C          26.7373   -0.2312   -1.7775 C.2       1 UNK         0.5154 
     36 O          26.3991   -0.2832   -2.9610 O.2       1 UNK        -0.5181 
     37 C          27.8467   -1.9121   -7.9351 C.2       5 UNK         0.5014 
     38 O          28.4153   -1.4943   -8.9445 O.2       5 UNK        -0.5248 
     39 N          28.2427   -1.6000   -6.6920 N.am      6 UNK        -0.4434 
     40 CA         29.3105   -0.6471   -6.3679 C.3       6 UNK         0.0363 
     41 CB         29.4662   -0.5360   -4.8475 C.3       6 UNK        -0.1936 
     42 C          29.0851    0.7553   -6.9536 C.2       6 UNK         0.5081 
     43 O          30.0629    1.4269   -7.2785 O.2       6 UNK        -0.5248 
     44 N          27.8157    1.1602   -7.1061 N.am      7 UNK        -0.4718 
     45 CA         27.4227    2.4166   -7.7468 C.3       7 UNK         0.0273 
     46 CB         25.9348    2.6797   -7.4658 C.3       7 UNK        -0.1935 
     47 C          27.6994    2.4376   -9.2618 C.2       7 UNK         0.5018 
     48 O          27.9614    3.5096   -9.8074 O.2       7 UNK        -0.5186 
     49 N          27.6446    1.2648   -9.9089 N.am      8 UNK        -0.4240 
     50 CA         27.9484    1.0848  -11.3296 C.3       8 UNK         0.0235 
     51 CB         27.1062   -0.0717  -11.8943 C.3       8 UNK        -0.2000 
     52 C          29.4460    0.8261  -11.5492 C.2       8 UNK         0.4941 
     53 O          30.0295    1.3909  -12.4744 O.2       8 UNK        -0.5273 
     54 N          30.0426   -0.0104  -10.6880 N.am      9 UNK        -0.4262 
     55 CA         31.4622   -0.3737  -10.7078 C.3       9 UNK         0.0264 
     56 CB         31.6565   -1.6413   -9.8596 C.3       9 UNK        -0.1955 
     57 C          32.4053    0.7493  -10.2327 C.2       9 UNK         0.5031 
     58 O          33.6065    0.6617  -10.4913 O.2       9 UNK        -0.5390 
     59 N          31.8536    1.7662   -9.5531 N.am      10 UNK        -0.4204 
     60 CA         32.5305    2.9095   -8.9300 C.3       10 UNK         0.0237 
     61 CB         33.2543    3.7818   -9.9788 C.3       10 UNK        -0.1985 
     62 C          33.4303    2.4843   -7.7537 C.2       10 UNK         0.4970 
     63 O          34.5419    2.9966   -7.6071 O.2       10 UNK        -0.4914 
     64 N          32.9197    1.5591   -6.9320 N.am      11 UNK        -0.4285 
     65 CA         33.5765    1.0651   -5.7106 C.3       11 UNK         0.1007 
     66 C          33.3040    1.9501   -4.4607 C.2       11 UNK         0.5703 
     67 N          32.3768    2.9007   -4.5051 N.am      11 UNK        -0.7361 
     68 O          33.9558    1.7785   -3.4335 O.2       11 UNK        -0.4986 
     69 C69        33.2332   -0.4196   -5.4208 C.3       12 UNK        -0.0947 
     70 S70        33.6749   -1.5306   -6.7921 S.3       12 UNK        -0.2240 
     71 C71        33.6345   -3.1464   -5.9577 C.3       12 UNK         0.0194 
     72 H72        28.0495   -2.6860    2.8466 H         1 UNK         0.0906 
     73 H73        28.6350   -1.0323    2.6593 H         1 UNK         0.0906 
     74 H74        26.9416   -1.3279    3.0595 H         1 UNK         0.0906 
     75 H75        28.9240   -0.4874    0.5265 H         1 UNK         0.3140 
     76 H76        28.8223   -0.3131   -1.6457 H         1 UNK         0.1085 
     77 H77        27.5199   -3.0798   -1.6746 H         1 UNK         0.0836 
     78 H78        28.0875   -2.2615   -3.0983 H         1 UNK         0.0836 
     79 H79        28.9727   -4.9470   -2.7064 H         1 UNK         0.0731 
     80 H80        30.6321   -5.1947   -2.2364 H         1 UNK         0.0731 
     81 H81        32.3341   -3.4223   -3.5627 H         1 UNK         0.1312 
     82 H82        31.8231   -4.0249   -7.7720 H         1 UNK         0.1406 
     83 H83        28.7138   -5.1636   -5.0387 H         1 UNK         0.1631 
     84 H84        29.5935   -4.5612   -8.6255 H         1 UNK         0.0717 
     85 H85        29.7994   -6.1665   -7.9795 H         1 UNK         0.0717 
     86 H86        27.5855   -4.0669   -9.5834 H         1 UNK         0.0934 
     87 H87        26.0058   -4.5980   -9.1289 H         1 UNK         0.0934 
     88 H88        25.9888   -2.2434   -8.8624 H         1 UNK         0.0739 
     89 H89        25.5056   -3.8446   -6.6617 H         1 UNK         0.3093 
     90 H90        23.3521   -2.8892   -5.6289 H         1 UNK         0.0818 
     91 H91        24.1565   -3.4525   -3.2807 H         1 UNK         0.0819 
     92 H92        25.1748   -4.1614   -4.5179 H         1 UNK         0.0819 
     93 H93        25.7105   -2.7241   -3.6599 H         1 UNK         0.0819 
     94 H94        24.2426   -0.3539   -4.4554 H         1 UNK         0.3041 
     95 H95        21.7689    1.0220   -4.3068 H         1 UNK         0.0784 
     96 H96        19.8378   -0.0144   -3.1881 H         1 UNK         0.0793 
     97 H97        20.7949   -0.3753   -1.7603 H         1 UNK         0.0793 
     98 H98        20.4460    1.2978   -2.1941 H         1 UNK         0.0793 
     99 H99        23.4170    1.8629   -3.1122 H         1 UNK         0.3024 
    100 H100       25.1799    2.0632   -1.8861 H         1 UNK         0.1171 
    101 H101       25.3303    2.7259    0.5020 H         1 UNK         0.0786 
    102 H102       23.6507    2.7249   -0.0092 H         1 UNK         0.0786 
    103 H103       24.2647    1.3988    0.9678 H         1 UNK         0.0786 
    104 H104       26.4168    0.4706    0.0869 H         1 UNK         0.2977 
    105 H105       27.7156   -1.9738   -5.9177 H         1 UNK         0.3127 
    106 H106       30.2417   -1.0353   -6.7838 H         1 UNK         0.0770 
    107 H107       28.5184   -0.2927   -4.3730 H         1 UNK         0.0814 
    108 H108       30.1645    0.2547   -4.5707 H         1 UNK         0.0814 
    109 H109       29.8443   -1.4642   -4.4231 H         1 UNK         0.0814 
    110 H110       27.0664    0.5431   -6.8082 H         1 UNK         0.2983 
    111 H111       28.0058    3.2232   -7.2965 H         1 UNK         0.0947 
    112 H112       25.3016    1.8905   -7.8738 H         1 UNK         0.0806 
    113 H113       25.6128    3.6219   -7.9115 H         1 UNK         0.0806 
    114 H114       25.7392    2.7439   -6.3953 H         1 UNK         0.0806 
    115 H115       27.4834    0.4242   -9.3694 H         1 UNK         0.3000 
    116 H116       27.6805    1.9925  -11.8753 H         1 UNK         0.0850 
    117 H117       27.3007   -0.2099  -12.9588 H         1 UNK         0.0810 
    118 H118       26.0398    0.1252  -11.7835 H         1 UNK         0.0810 
    119 H119       27.3249   -1.0181  -11.3985 H         1 UNK         0.0810 
    120 H120       29.4659   -0.4837   -9.9929 H         1 UNK         0.3040 
    121 H121       31.7362   -0.6093  -11.7383 H         1 UNK         0.0766 
    122 H122       31.0579   -2.4697  -10.2389 H         1 UNK         0.0812 
    123 H123       31.3730   -1.4748   -8.8207 H         1 UNK         0.0812 
    124 H124       32.6988   -1.9632   -9.8660 H         1 UNK         0.0812 
    125 H125       30.8693    1.6858   -9.3301 H         1 UNK         0.3205 
    126 H126       31.7389    3.5202   -8.4932 H         1 UNK         0.0754 
    127 H127       33.6256    4.7034   -9.5290 H         1 UNK         0.0769 
    128 H128       32.5829    4.0649  -10.7895 H         1 UNK         0.0769 
    129 H129       34.1109    3.2680  -10.4159 H         1 UNK         0.0769 
    130 H130       31.9656    1.2510   -7.0918 H         1 UNK         0.2981 
    131 H131       34.6557    1.1110   -5.8685 H         1 UNK         0.0541 
    132 H132       31.8326    3.0461   -5.3401 H         1 UNK         0.3459 
    133 H133       32.2168    3.4716   -3.6904 H         1 UNK         0.3459 
    134 H134       32.1728   -0.5429   -5.2162 H         1 UNK         0.0612 
    135 H135       33.7589   -0.7603   -4.5269 H         1 UNK         0.0612 
    136 H136       34.2063   -3.0930   -5.0301 H         1 UNK         0.0624 
    137 H137       34.1506   -3.8719   -6.5880 H         1 UNK         0.0624 
@<TRIPOS>BOND
     1    1    2 1    
     2    1   72 1    
     3    1   73 1    
     4    1   74 1    
     5    2    3 2    
     6    2    4 am   BACKBONE|DICT|INTERRES
     7    4    5 1    
     8    4   75 1    
     9    5    6 1    
    10    5   35 1    
    11    5   76 1    
    12    6    7 1    
    13    6   77 1    
    14    6   78 1    
    15    7    8 1    
    16    8    9 1    
    17    8   79 1    
    18    8   80 1    
    19    9   10 ar   
    20    9   14 ar   
    21   10   11 ar   
    22   10   81 1    
    23   11   12 ar   
    24   11   71 1    
    25   12   13 ar   
    26   12   82 1    
    27   13   14 ar   
    28   13   15 1    
    29   14   83 1    
    30   15   16 1    
    31   15   84 1    
    32   15   85 1    
    33   16   17 1    
    34   17   18 1    
    35   17   86 1    
    36   17   87 1    
    37   18   19 1    
    38   18   37 1    
    39   18   88 1    
    40   19   20 am   BACKBONE|DICT|INTERRES
    41   19   89 1    
    42   20   21 2    
    43   20   22 1    
    44   22   23 1    
    45   22   24 1    
    46   22   90 1    
    47   23   91 1    
    48   23   92 1    
    49   23   93 1    
    50   24   25 am   BACKBONE|DICT|INTERRES
    51   24   94 1    
    52   25   26 2    
    53   25   27 1    
    54   27   28 1    
    55   27   29 1    
    56   27   95 1    
    57   28   96 1    
    58   28   97 1    
    59   28   98 1    
    60   29   30 am   BACKBONE|DICT|INTERRES
    61   29   99 1    
    62   30   31 2    
    63   30   32 1    
    64   32   33 1    
    65   32   34 1    
    66   32  100 1    
    67   33  101 1    
    68   33  102 1    
    69   33  103 1    
    70   34   35 am   BACKBONE|DICT|INTERRES
    71   34  104 1    
    72   35   36 2    
    73   37   38 2    
    74   37   39 am   BACKBONE|DICT|INTERRES
    75   39   40 1    
    76   39  105 1    
    77   40   41 1    
    78   40   42 1    
    79   40  106 1    
    80   41  107 1    
    81   41  108 1    
    82   41  109 1    
    83   42   43 2    
    84   42   44 am   BACKBONE|DICT|INTERRES
    85   44   45 1    
    86   44  110 1    
    87   45   46 1    
    88   45   47 1    
    89   45  111 1    
    90   46  112 1    
    91   46  113 1    
    92   46  114 1    
    93   47   48 2    
    94   47   49 am   BACKBONE|DICT|INTERRES
    95   49   50 1    
    96   49  115 1    
    97   50   51 1    
    98   50   52 1    
    99   50  116 1    
   100   51  117 1    
   101   51  118 1    
   102   51  119 1    
   103   52   53 2    
   104   52   54 am   BACKBONE|DICT|INTERRES
   105   54   55 1    
   106   54  120 1    
   107   55   56 1    
   108   55   57 1    
   109   55  121 1    
   110   56  122 1    
   111   56  123 1    
   112   56  124 1    
   113   57   58 2    
   114   57   59 am   BACKBONE|DICT|INTERRES
   115   59   60 1    
   116   59  125 1    
   117   60   61 1    
   118   60   62 1    
   119   60  126 1    
   120   61  127 1    
   121   61  128 1    
   122   61  129 1    
   123   62   63 2    
   124   62   64 am   BACKBONE|DICT|INTERRES
   125   64   65 1    
   126   64  130 1    
   127   65   66 1    
   128   65   69 1    
   129   65  131 1    
   130   66   67 am   BACKBONE|DICT|INTERRES
   131   66   68 2    
   132   67  132 1    
   133   67  133 1    
   134   69   70 1    
   135   69  134 1    
   136   69  135 1    
   137   70   71 1    
   138   71  136 1    
   139   71  137 1    
@<TRIPOS>SUBSTRUCTURE
     1 UNK         1 GROUP             0       ****    0 ROOT    
