@<TRIPOS>MOLECULE
3R137
137   139    1
SMALL
USER_CHARGES


@<TRIPOS>ATOM
      1 CA         29.3911   -6.4106   -6.4688 C.3       0 UNK        -0.2020 
      2 C          28.5254   -6.7284   -5.2589 C.2       0 UNK         0.4855 
      3 O          27.9566   -7.8183   -5.1821 O.2       0 UNK        -0.5197 
      4 N          28.4303   -5.7894   -4.3100 N.am      1 UNK        -0.4892 
      5 CA         27.5714   -5.8828   -3.1257 C.3       1 UNK         0.0835 
      6 C6         28.1224   -5.0107   -1.9643 C.3       12 UNK        -0.0855 
      7 S7         28.0784   -3.2114   -2.2831 S.3       12 UNK        -0.2931 
      8 C8         29.8488   -2.7892   -2.3251 C.3       12 UNK         0.0378 
      9 C9         30.0663   -1.3113   -2.6243 C.ar      12 UNK        -0.0802 
     10 C10        30.8535   -0.9133   -3.7093 C.ar      12 UNK        -0.0944 
     11 C11        31.0808    0.4439   -3.9632 C.ar      12 UNK        -0.0787 
     12 C12        30.4971    1.4084   -3.1368 C.ar      12 UNK        -0.0862 
     13 C13        29.6924    1.0234   -2.0608 C.ar      12 UNK        -0.0733 
     14 C14        29.4974   -0.3359   -1.8001 C.ar      12 UNK        -0.0832 
     15 C15        29.0346    2.0646   -1.1680 C.3       12 UNK         0.0240 
     16 S16        27.2219    2.0262   -1.3345 S.3       12 UNK        -0.2522 
     17 C17        26.9257    3.1565   -2.7386 C.3       12 UNK        -0.0967 
     18 CA         27.2165    2.5693   -4.1471 C.3       5 UNK         0.0660 
     19 N          26.7789    1.1746   -4.2835 N.am      5 UNK        -0.4015 
     20 C          26.8904    0.4031   -5.3741 C.2       4 UNK         0.4946 
     21 O          27.3535    0.8087   -6.4400 O.2       4 UNK        -0.5353 
     22 CA         26.4002   -1.0562   -5.2954 C.3       4 UNK         0.0277 
     23 CB         27.5219   -2.0206   -5.7190 C.3       4 UNK        -0.1981 
     24 N          25.8788   -1.4637   -3.9855 N.am      4 UNK        -0.4209 
     25 C          24.7261   -1.0507   -3.4409 C.2       3 UNK         0.4942 
     26 O          23.9658   -0.2477   -3.9853 O.2       3 UNK        -0.5208 
     27 CA         24.4020   -1.6142   -2.0441 C.3       3 UNK         0.0250 
     28 CB         23.1152   -1.0183   -1.4334 C.3       3 UNK        -0.1990 
     29 N          24.3657   -3.0824   -2.0274 N.am      3 UNK        -0.4232 
     30 C          23.5398   -3.8909   -2.7128 C.2       2 UNK         0.4993 
     31 O          22.6361   -3.4941   -3.4509 O.2       2 UNK        -0.5286 
     32 CA         23.7737   -5.4073   -2.5291 C.3       2 UNK         0.0209 
     33 CB         23.0106   -6.2673   -3.5608 C.3       2 UNK        -0.1931 
     34 N          25.2006   -5.7676   -2.4993 N.am      2 UNK        -0.4546 
     35 C          26.1010   -5.5471   -3.4709 C.2       1 UNK         0.5154 
     36 O          25.8165   -5.0599   -4.5683 O.2       1 UNK        -0.5181 
     37 C          26.6373    3.5074   -5.2279 C.2       5 UNK         0.5014 
     38 O          27.3338    4.4179   -5.6775 O.2       5 UNK        -0.5248 
     39 N          25.3790    3.2633   -5.6239 N.am      6 UNK        -0.4434 
     40 CA         24.6786    4.0046   -6.6748 C.3       6 UNK         0.0363 
     41 CB         23.1675    3.7539   -6.5457 C.3       6 UNK        -0.1936 
     42 C          25.1604    3.6516   -8.0939 C.2       6 UNK         0.5081 
     43 O          25.0547    4.4929   -8.9868 O.2       6 UNK        -0.5248 
     44 N          25.6655    2.4251   -8.2854 N.am      7 UNK        -0.4718 
     45 CA         26.2271    1.9528   -9.5523 C.3       7 UNK         0.0273 
     46 CB         26.0507    0.4287   -9.6599 C.3       7 UNK        -0.1935 
     47 C          27.7079    2.3339   -9.6845 C.2       7 UNK         0.5018 
     48 O          28.1491    2.6612  -10.7859 O.2       7 UNK        -0.5186 
     49 N          28.4498    2.2573   -8.5691 N.am      8 UNK        -0.4240 
     50 CA         29.8674    2.5899   -8.3608 C.3       8 UNK         0.0235 
     51 CB         30.1371    4.0789   -8.6466 C.3       8 UNK        -0.2000 
     52 C          30.8790    1.6944   -9.1013 C.2       8 UNK         0.4941 
     53 O          31.9925    1.5276   -8.6044 O.2       8 UNK        -0.5273 
     54 N          30.4852    1.1055  -10.2394 N.am      9 UNK        -0.4262 
     55 CA         31.2865    0.2378  -11.1129 C.3       9 UNK         0.0264 
     56 CB         30.4145   -0.2316  -12.2882 C.3       9 UNK        -0.1955 
     57 C          31.9393   -0.9698  -10.4153 C.2       9 UNK         0.5031 
     58 O          33.0003   -1.4146  -10.8553 O.2       9 UNK        -0.5390 
     59 N          31.3349   -1.4408   -9.3146 N.am      10 UNK        -0.4204 
     60 CA         31.8797   -2.4578   -8.4084 C.3       10 UNK         0.0237 
     61 CB         30.8477   -2.7457   -7.3047 C.3       10 UNK        -0.1985 
     62 C          33.2396   -2.0836   -7.7827 C.2       10 UNK         0.4970 
     63 O          34.0030   -2.9843   -7.4332 O.2       10 UNK        -0.4914 
     64 N          33.5174   -0.7794   -7.6652 N.am      11 UNK        -0.4285 
     65 CA         34.7886   -0.2152   -7.1948 C.3       11 UNK         0.1007 
     66 C          35.7834    0.0977   -8.3518 C.2       11 UNK         0.5703 
     67 N          35.4751   -0.1973   -9.6107 N.am      11 UNK        -0.7361 
     68 O          36.8760    0.6015   -8.1015 O.2       11 UNK        -0.4986 
     69 C69        34.5427    1.0211   -6.2876 C.3       12 UNK        -0.0947 
     70 S70        33.7209    0.5748   -4.7226 S.3       12 UNK        -0.2240 
     71 C71        31.9696    0.8627   -5.1228 C.3       12 UNK         0.0194 
     72 H72        29.9469   -5.4839   -6.3366 H         1 UNK         0.0906 
     73 H73        30.1092   -7.2122   -6.6395 H         1 UNK         0.0906 
     74 H74        28.7703   -6.3124   -7.3589 H         1 UNK         0.0906 
     75 H75        28.8741   -4.8934   -4.4455 H         1 UNK         0.3140 
     76 H76        27.5814   -6.9214   -2.7863 H         1 UNK         0.1085 
     77 H77        29.1454   -5.3145   -1.7359 H         1 UNK         0.0836 
     78 H78        27.5625   -5.2011   -1.0472 H         1 UNK         0.0836 
     79 H79        30.3473   -3.4120   -3.0695 H         1 UNK         0.0731 
     80 H80        30.3011   -3.0278   -1.3615 H         1 UNK         0.0731 
     81 H81        31.3117   -1.6573   -4.3463 H         1 UNK         0.1312 
     82 H82        30.6686    2.4581   -3.3323 H         1 UNK         0.1406 
     83 H83        28.8852   -0.6362   -0.9602 H         1 UNK         0.1631 
     84 H84        29.4094    3.0669   -1.3802 H         1 UNK         0.0717 
     85 H85        29.2954    1.8539   -0.1299 H         1 UNK         0.0717 
     86 H86        25.8787    3.4582   -2.6629 H         1 UNK         0.0934 
     87 H87        27.5042    4.0696   -2.5849 H         1 UNK         0.0934 
     88 H88        28.2964    2.5616   -4.2956 H         1 UNK         0.0739 
     89 H89        26.4044    0.7574   -3.4449 H         1 UNK         0.3093 
     90 H90        25.5866   -1.1511   -6.0174 H         1 UNK         0.0818 
     91 H91        28.3874   -1.9447   -5.0609 H         1 UNK         0.0819 
     92 H92        27.1824   -3.0559   -5.7134 H         1 UNK         0.0819 
     93 H93        27.8641   -1.8026   -6.7314 H         1 UNK         0.0819 
     94 H94        26.4524   -2.1168   -3.4651 H         1 UNK         0.3041 
     95 H95        25.2314   -1.3207   -1.3981 H         1 UNK         0.0784 
     96 H96        23.1899    0.0670   -1.3535 H         1 UNK         0.0793 
     97 H97        22.2358   -1.2377   -2.0397 H         1 UNK         0.0793 
     98 H98        22.9361   -1.4050   -0.4303 H         1 UNK         0.0793 
     99 H99        25.0831   -3.5238   -1.4692 H         1 UNK         0.3024 
    100 H100       23.3713   -5.6507   -1.5441 H         1 UNK         0.1171 
    101 H101       23.1796   -7.3310   -3.3936 H         1 UNK         0.0786 
    102 H102       21.9354   -6.0971   -3.4925 H         1 UNK         0.0786 
    103 H103       23.3102   -6.0365   -4.5836 H         1 UNK         0.0786 
    104 H104       25.5248   -6.1741   -1.6320 H         1 UNK         0.2977 
    105 H105       24.8802    2.4957   -5.1953 H         1 UNK         0.3127 
    106 H106       24.8609    5.0708   -6.5225 H         1 UNK         0.0770 
    107 H107       22.9195    2.6995   -6.6748 H         1 UNK         0.0814 
    108 H108       22.6137    4.3134   -7.3011 H         1 UNK         0.0814 
    109 H109       22.7937    4.0711   -5.5720 H         1 UNK         0.0814 
    110 H110       25.7882    1.8187   -7.4844 H         1 UNK         0.2983 
    111 H111       25.6877    2.4147  -10.3826 H         1 UNK         0.0947 
    112 H112       26.4401    0.0583  -10.6093 H         1 UNK         0.0806 
    113 H113       24.9985    0.1483   -9.6112 H         1 UNK         0.0806 
    114 H114       26.5751   -0.1022   -8.8645 H         1 UNK         0.0806 
    115 H115       27.9898    1.8656   -7.7471 H         1 UNK         0.3000 
    116 H116       30.0430    2.4254   -7.2964 H         1 UNK         0.0850 
    117 H117       31.1639    4.3442   -8.3914 H         1 UNK         0.0810 
    118 H118       29.4804    4.7182   -8.0560 H         1 UNK         0.0810 
    119 H119       29.9903    4.3259   -9.6985 H         1 UNK         0.0810 
    120 H120       29.5743    1.3849  -10.5911 H         1 UNK         0.3040 
    121 H121       32.0972    0.8511  -11.5111 H         1 UNK         0.0766 
    122 H122       30.9868   -0.8566  -12.9755 H         1 UNK         0.0812 
    123 H123       30.0338    0.6133  -12.8627 H         1 UNK         0.0812 
    124 H124       29.5601   -0.8179  -11.9475 H         1 UNK         0.0812 
    125 H125       30.4658   -1.0076   -9.0399 H         1 UNK         0.3205 
    126 H126       32.0315   -3.3704   -8.9882 H         1 UNK         0.0754 
    127 H127       30.5790   -1.8418   -6.7571 H         1 UNK         0.0769 
    128 H128       31.2396   -3.4596   -6.5793 H         1 UNK         0.0769 
    129 H129       29.9335   -3.1720   -7.7183 H         1 UNK         0.0769 
    130 H130       32.8535   -0.0934   -8.0133 H         1 UNK         0.2981 
    131 H131       35.2985   -0.9635   -6.5855 H         1 UNK         0.0541 
    132 H132       34.5944   -0.6370   -9.8510 H         1 UNK         0.3459 
    133 H133       36.1426    0.0090  -10.3364 H         1 UNK         0.3459 
    134 H134       33.9628    1.7842   -6.8088 H         1 UNK         0.0612 
    135 H135       35.4882    1.4940   -6.0167 H         1 UNK         0.0612 
    136 H136       31.6879    0.2984   -6.0110 H         1 UNK         0.0624 
    137 H137       31.8236    1.9163   -5.3659 H         1 UNK         0.0624 
@<TRIPOS>BOND
     1    1    2 1    
     2    1   72 1    
     3    1   73 1    
     4    1   74 1    
     5    2    3 2    
     6    2    4 am   BACKBONE|DICT|INTERRES
     7    4    5 1    
     8    4   75 1    
     9    5    6 1    
    10    5   35 1    
    11    5   76 1    
    12    6    7 1    
    13    6   77 1    
    14    6   78 1    
    15    7    8 1    
    16    8    9 1    
    17    8   79 1    
    18    8   80 1    
    19    9   10 ar   
    20    9   14 ar   
    21   10   11 ar   
    22   10   81 1    
    23   11   12 ar   
    24   11   71 1    
    25   12   13 ar   
    26   12   82 1    
    27   13   14 ar   
    28   13   15 1    
    29   14   83 1    
    30   15   16 1    
    31   15   84 1    
    32   15   85 1    
    33   16   17 1    
    34   17   18 1    
    35   17   86 1    
    36   17   87 1    
    37   18   19 1    
    38   18   37 1    
    39   18   88 1    
    40   19   20 am   BACKBONE|DICT|INTERRES
    41   19   89 1    
    42   20   21 2    
    43   20   22 1    
    44   22   23 1    
    45   22   24 1    
    46   22   90 1    
    47   23   91 1    
    48   23   92 1    
    49   23   93 1    
    50   24   25 am   BACKBONE|DICT|INTERRES
    51   24   94 1    
    52   25   26 2    
    53   25   27 1    
    54   27   28 1    
    55   27   29 1    
    56   27   95 1    
    57   28   96 1    
    58   28   97 1    
    59   28   98 1    
    60   29   30 am   BACKBONE|DICT|INTERRES
    61   29   99 1    
    62   30   31 2    
    63   30   32 1    
    64   32   33 1    
    65   32   34 1    
    66   32  100 1    
    67   33  101 1    
    68   33  102 1    
    69   33  103 1    
    70   34   35 am   BACKBONE|DICT|INTERRES
    71   34  104 1    
    72   35   36 2    
    73   37   38 2    
    74   37   39 am   BACKBONE|DICT|INTERRES
    75   39   40 1    
    76   39  105 1    
    77   40   41 1    
    78   40   42 1    
    79   40  106 1    
    80   41  107 1    
    81   41  108 1    
    82   41  109 1    
    83   42   43 2    
    84   42   44 am   BACKBONE|DICT|INTERRES
    85   44   45 1    
    86   44  110 1    
    87   45   46 1    
    88   45   47 1    
    89   45  111 1    
    90   46  112 1    
    91   46  113 1    
    92   46  114 1    
    93   47   48 2    
    94   47   49 am   BACKBONE|DICT|INTERRES
    95   49   50 1    
    96   49  115 1    
    97   50   51 1    
    98   50   52 1    
    99   50  116 1    
   100   51  117 1    
   101   51  118 1    
   102   51  119 1    
   103   52   53 2    
   104   52   54 am   BACKBONE|DICT|INTERRES
   105   54   55 1    
   106   54  120 1    
   107   55   56 1    
   108   55   57 1    
   109   55  121 1    
   110   56  122 1    
   111   56  123 1    
   112   56  124 1    
   113   57   58 2    
   114   57   59 am   BACKBONE|DICT|INTERRES
   115   59   60 1    
   116   59  125 1    
   117   60   61 1    
   118   60   62 1    
   119   60  126 1    
   120   61  127 1    
   121   61  128 1    
   122   61  129 1    
   123   62   63 2    
   124   62   64 am   BACKBONE|DICT|INTERRES
   125   64   65 1    
   126   64  130 1    
   127   65   66 1    
   128   65   69 1    
   129   65  131 1    
   130   66   67 am   BACKBONE|DICT|INTERRES
   131   66   68 2    
   132   67  132 1    
   133   67  133 1    
   134   69   70 1    
   135   69  134 1    
   136   69  135 1    
   137   70   71 1    
   138   71  136 1    
   139   71  137 1    
@<TRIPOS>SUBSTRUCTURE
     1 UNK         1 GROUP             0       ****    0 ROOT    
