@<TRIPOS>MOLECULE
3R137
137   139    1
SMALL
USER_CHARGES


@<TRIPOS>ATOM
      1 CA         26.7319    0.8357   -1.8766 C.3       0 UNK        -0.2020 
      2 C          27.4050   -0.5031   -2.1388 C.2       0 UNK         0.4855 
      3 O          27.4627   -0.9398   -3.2895 O.2       0 UNK        -0.5197 
      4 N          27.9100   -1.1602   -1.0850 N.am      1 UNK        -0.4892 
      5 CA         28.4968   -2.5058   -1.1362 C.3       1 UNK         0.0835 
      6 C6         29.1329   -2.9387    0.2102 C.3       12 UNK        -0.0855 
      7 S7         30.2802   -1.7108    0.9214 S.3       12 UNK        -0.2931 
      8 C8         31.8841   -2.2475    0.2440 C.3       12 UNK         0.0378 
      9 C9         32.0440   -1.8757   -1.2243 C.ar      12 UNK        -0.0802 
     10 C10        32.2986   -2.8614   -2.1826 C.ar      12 UNK        -0.0944 
     11 C11        32.4776   -2.5132   -3.5248 C.ar      12 UNK        -0.0787 
     12 C12        32.4061   -1.1698   -3.9043 C.ar      12 UNK        -0.0862 
     13 C13        32.1324   -0.1740   -2.9598 C.ar      12 UNK        -0.0733 
     14 C14        31.9641   -0.5366   -1.6206 C.ar      12 UNK        -0.0832 
     15 C15        32.0413    1.2989   -3.3545 C.3       12 UNK         0.0240 
     16 S16        31.2214    1.5983   -4.9565 S.3       12 UNK        -0.2522 
     17 C17        29.5797    0.8612   -4.6671 C.3       12 UNK        -0.0967 
     18 CA         28.5915    1.1615   -5.8216 C.3       5 UNK         0.0660 
     19 N          27.6757    0.0478   -6.1097 N.am      5 UNK        -0.4015 
     20 C          27.0094   -0.0498   -7.2724 C.2       4 UNK         0.4946 
     21 O          27.2144    0.7122   -8.2189 O.2       4 UNK        -0.5353 
     22 CA         25.8823   -1.0898   -7.4165 C.3       4 UNK         0.0277 
     23 CB         26.1977   -2.1362   -8.4952 C.3       4 UNK        -0.1981 
     24 N          25.4665   -1.7688   -6.1884 N.am      4 UNK        -0.4209 
     25 C          24.8353   -1.1902   -5.1618 C.2       3 UNK         0.4942 
     26 O          24.7148    0.0299   -5.0455 O.2       3 UNK        -0.5208 
     27 CA         24.2128   -2.1168   -4.1005 C.3       3 UNK         0.0250 
     28 CB         22.8887   -2.7163   -4.6109 C.3       3 UNK        -0.1990 
     29 N          25.0966   -3.1649   -3.5715 N.am      3 UNK        -0.4232 
     30 C          25.6979   -4.1926   -4.1890 C.2       2 UNK         0.4993 
     31 O          25.5890   -4.4296   -5.3937 O.2       2 UNK        -0.5286 
     32 CA         26.6073   -5.0743   -3.3034 C.3       2 UNK         0.0209 
     33 CB         27.2783   -6.2194   -4.0832 C.3       2 UNK        -0.1931 
     34 N          27.6384   -4.2685   -2.6361 N.am      2 UNK        -0.4546 
     35 C          27.4088   -3.5130   -1.5551 C.2       1 UNK         0.5154 
     36 O          26.3433   -3.5394   -0.9321 O.2       1 UNK        -0.5181 
     37 C          27.8358    2.4950   -5.6267 C.2       5 UNK         0.5014 
     38 O          28.4170    3.5521   -5.8720 O.2       5 UNK        -0.5248 
     39 N          26.5352    2.4438   -5.2867 N.am      6 UNK        -0.4434 
     40 CA         25.6433    3.6102   -5.3042 C.3       6 UNK         0.0363 
     41 CB         24.3259    3.2653   -4.5928 C.3       6 UNK        -0.1936 
     42 C          25.3683    4.1352   -6.7291 C.2       6 UNK         0.5081 
     43 O          25.0389    5.3109   -6.8831 O.2       6 UNK        -0.5248 
     44 N          25.5383    3.2723   -7.7419 N.am      7 UNK        -0.4718 
     45 CA         25.4929    3.6103   -9.1672 C.3       7 UNK         0.0273 
     46 CB         24.7726    2.4776   -9.9213 C.3       7 UNK        -0.1935 
     47 C          26.9004    3.8620   -9.7492 C.2       7 UNK         0.5018 
     48 O          27.0239    4.0166  -10.9648 O.2       7 UNK        -0.5186 
     49 N          27.9278    3.8980   -8.8849 N.am      8 UNK        -0.4240 
     50 CA         29.3486    4.1211   -9.1755 C.3       8 UNK         0.0235 
     51 CB         29.5793    5.5284   -9.7682 C.3       8 UNK        -0.2000 
     52 C          30.0199    3.0053  -10.0022 C.2       8 UNK         0.4941 
     53 O          31.0451    3.2638  -10.6370 O.2       8 UNK        -0.5273 
     54 N          29.4718    1.7828   -9.9643 N.am      9 UNK        -0.4262 
     55 CA         30.1162    0.5842  -10.5067 C.3       9 UNK         0.0264 
     56 CB         29.0284   -0.4203  -10.9193 C.3       9 UNK        -0.1955 
     57 C          31.0394   -0.0365   -9.4461 C.2       9 UNK         0.5031 
     58 O          30.9026    0.2646   -8.2590 O.2       9 UNK        -0.5390 
     59 N          31.9207   -0.9560   -9.8601 N.am      10 UNK        -0.4204 
     60 CA         32.7907   -1.7421   -8.9710 C.3       10 UNK         0.0237 
     61 CB         33.9877   -2.2719   -9.7835 C.3       10 UNK        -0.1985 
     62 C          32.0184   -2.8660   -8.2412 C.2       10 UNK         0.4970 
     63 O          32.4165   -4.0297   -8.3101 O.2       10 UNK        -0.4914 
     64 N          30.9184   -2.4785   -7.5829 N.am      11 UNK        -0.4285 
     65 CA         29.8689   -3.3046   -6.9726 C.3       11 UNK         0.1007 
     66 C          29.4335   -4.5434   -7.8145 C.2       11 UNK         0.5703 
     67 N          29.3369   -5.7316   -7.2358 N.am      11 UNK        -0.7361 
     68 O          29.1256   -4.4102   -8.9970 O.2       11 UNK        -0.4986 
     69 C69        30.0363   -3.4923   -5.4382 C.3       12 UNK        -0.0947 
     70 S70        31.3261   -4.6614   -4.8843 S.3       12 UNK        -0.2240 
     71 C71        32.7604   -3.5829   -4.5697 C.3       12 UNK         0.0194 
     72 H72        25.7318    0.8388   -2.3096 H         1 UNK         0.0906 
     73 H73        26.6394    1.0423   -0.8106 H         1 UNK         0.0906 
     74 H74        27.3000    1.6456   -2.3317 H         1 UNK         0.0906 
     75 H75        27.8442   -0.7564   -0.1616 H         1 UNK         0.3140 
     76 H76        29.2778   -2.4904   -1.8998 H         1 UNK         0.1085 
     77 H77        28.3568   -3.1135    0.9586 H         1 UNK         0.0836 
     78 H78        29.6536   -3.8912    0.0946 H         1 UNK         0.0836 
     79 H79        32.0063   -3.3208    0.3980 H         1 UNK         0.0731 
     80 H80        32.6810   -1.7659    0.8123 H         1 UNK         0.0731 
     81 H81        32.3627   -3.9003   -1.8887 H         1 UNK         0.1312 
     82 H82        32.5512   -0.9004   -4.9415 H         1 UNK         0.1406 
     83 H83        31.7682    0.2246   -0.8773 H         1 UNK         0.1631 
     84 H84        33.0508    1.7092   -3.3985 H         1 UNK         0.0717 
     85 H85        31.5096    1.8669   -2.5893 H         1 UNK         0.0717 
     86 H86        29.7262   -0.2146   -4.5695 H         1 UNK         0.0934 
     87 H87        29.1991    1.2021   -3.7045 H         1 UNK         0.0934 
     88 H88        29.1853    1.2996   -6.7260 H         1 UNK         0.0739 
     89 H89        27.4400   -0.5593   -5.3301 H         1 UNK         0.3093 
     90 H90        25.0140   -0.5271   -7.7665 H         1 UNK         0.0818 
     91 H91        25.3428   -2.7892   -8.6717 H         1 UNK         0.0819 
     92 H92        26.4331   -1.6612   -9.4477 H         1 UNK         0.0819 
     93 H93        27.0406   -2.7654   -8.2198 H         1 UNK         0.0819 
     94 H94        25.5467   -2.7844   -6.1607 H         1 UNK         0.3041 
     95 H95        23.9752   -1.4817   -3.2456 H         1 UNK         0.0784 
     96 H96        22.2056   -1.9310   -4.9378 H         1 UNK         0.0793 
     97 H97        23.0429   -3.3854   -5.4581 H         1 UNK         0.0793 
     98 H98        22.3821   -3.2801   -3.8277 H         1 UNK         0.0793 
     99 H99        25.3156   -3.0683   -2.5844 H         1 UNK         0.3024 
    100 H100       25.9651   -5.5315   -2.5465 H         1 UNK         0.1171 
    101 H101       26.5301   -6.8752   -4.5305 H         1 UNK         0.0786 
    102 H102       27.8992   -6.8348   -3.4321 H         1 UNK         0.0786 
    103 H103       27.9040   -5.8473   -4.8917 H         1 UNK         0.0786 
    104 H104       28.5223   -4.1799   -3.1156 H         1 UNK         0.2977 
    105 H105       26.0925    1.5433   -5.1239 H         1 UNK         0.3127 
    106 H106       26.1291    4.4136   -4.7461 H         1 UNK         0.0770 
    107 H107       23.7613    2.5053   -5.1339 H         1 UNK         0.0814 
    108 H108       23.6869    4.1456   -4.5116 H         1 UNK         0.0814 
    109 H109       24.5019    2.8978   -3.5818 H         1 UNK         0.0814 
    110 H110       25.8413    2.3301   -7.5308 H         1 UNK         0.2983 
    111 H111       24.9202    4.5290   -9.3110 H         1 UNK         0.0947 
    112 H112       24.6424    2.7298  -10.9745 H         1 UNK         0.0806 
    113 H113       23.7799    2.2951   -9.5097 H         1 UNK         0.0806 
    114 H114       25.3307    1.5419   -9.8798 H         1 UNK         0.0806 
    115 H115       27.7183    3.7586   -7.9038 H         1 UNK         0.3000 
    116 H116       29.8486    4.0959   -8.2060 H         1 UNK         0.0850 
    117 H117       30.6435    5.7608   -9.8242 H         1 UNK         0.0810 
    118 H118       29.1147    6.2993   -9.1534 H         1 UNK         0.0810 
    119 H119       29.1763    5.6142  -10.7777 H         1 UNK         0.0810 
    120 H120       28.6611    1.6217   -9.3741 H         1 UNK         0.3040 
    121 H121       30.7082    0.8444  -11.3867 H         1 UNK         0.0766 
    122 H122       28.2992    0.0337  -11.5906 H         1 UNK         0.0812 
    123 H123       28.4929   -0.8045  -10.0521 H         1 UNK         0.0812 
    124 H124       29.4584   -1.2774  -11.4385 H         1 UNK         0.0812 
    125 H125       31.9540   -1.1893  -10.8425 H         1 UNK         0.3205 
    126 H126       33.1872   -1.0792   -8.1985 H         1 UNK         0.0754 
    127 H127       34.6846   -2.8157   -9.1442 H         1 UNK         0.0769 
    128 H128       34.5457   -1.4571  -10.2453 H         1 UNK         0.0769 
    129 H129       33.6700   -2.9529  -10.5741 H         1 UNK         0.0769 
    130 H130       30.7204   -1.4813   -7.6151 H         1 UNK         0.2981 
    131 H131       28.9994   -2.6535   -7.0546 H         1 UNK         0.0541 
    132 H132       29.6466   -5.8541   -6.2843 H         1 UNK         0.3459 
    133 H133       29.0362   -6.5239   -7.7805 H         1 UNK         0.3459 
    134 H134       30.1999   -2.5225   -4.9712 H         1 UNK         0.0612 
    135 H135       29.0893   -3.8349   -5.0240 H         1 UNK         0.0612 
    136 H136       33.5930   -4.2007   -4.2311 H         1 UNK         0.0624 
    137 H137       33.0809   -3.1325   -5.5093 H         1 UNK         0.0624 
@<TRIPOS>BOND
     1    1    2 1    
     2    1   72 1    
     3    1   73 1    
     4    1   74 1    
     5    2    3 2    
     6    2    4 am   BACKBONE|DICT|INTERRES
     7    4    5 1    
     8    4   75 1    
     9    5    6 1    
    10    5   35 1    
    11    5   76 1    
    12    6    7 1    
    13    6   77 1    
    14    6   78 1    
    15    7    8 1    
    16    8    9 1    
    17    8   79 1    
    18    8   80 1    
    19    9   10 ar   
    20    9   14 ar   
    21   10   11 ar   
    22   10   81 1    
    23   11   12 ar   
    24   11   71 1    
    25   12   13 ar   
    26   12   82 1    
    27   13   14 ar   
    28   13   15 1    
    29   14   83 1    
    30   15   16 1    
    31   15   84 1    
    32   15   85 1    
    33   16   17 1    
    34   17   18 1    
    35   17   86 1    
    36   17   87 1    
    37   18   19 1    
    38   18   37 1    
    39   18   88 1    
    40   19   20 am   BACKBONE|DICT|INTERRES
    41   19   89 1    
    42   20   21 2    
    43   20   22 1    
    44   22   23 1    
    45   22   24 1    
    46   22   90 1    
    47   23   91 1    
    48   23   92 1    
    49   23   93 1    
    50   24   25 am   BACKBONE|DICT|INTERRES
    51   24   94 1    
    52   25   26 2    
    53   25   27 1    
    54   27   28 1    
    55   27   29 1    
    56   27   95 1    
    57   28   96 1    
    58   28   97 1    
    59   28   98 1    
    60   29   30 am   BACKBONE|DICT|INTERRES
    61   29   99 1    
    62   30   31 2    
    63   30   32 1    
    64   32   33 1    
    65   32   34 1    
    66   32  100 1    
    67   33  101 1    
    68   33  102 1    
    69   33  103 1    
    70   34   35 am   BACKBONE|DICT|INTERRES
    71   34  104 1    
    72   35   36 2    
    73   37   38 2    
    74   37   39 am   BACKBONE|DICT|INTERRES
    75   39   40 1    
    76   39  105 1    
    77   40   41 1    
    78   40   42 1    
    79   40  106 1    
    80   41  107 1    
    81   41  108 1    
    82   41  109 1    
    83   42   43 2    
    84   42   44 am   BACKBONE|DICT|INTERRES
    85   44   45 1    
    86   44  110 1    
    87   45   46 1    
    88   45   47 1    
    89   45  111 1    
    90   46  112 1    
    91   46  113 1    
    92   46  114 1    
    93   47   48 2    
    94   47   49 am   BACKBONE|DICT|INTERRES
    95   49   50 1    
    96   49  115 1    
    97   50   51 1    
    98   50   52 1    
    99   50  116 1    
   100   51  117 1    
   101   51  118 1    
   102   51  119 1    
   103   52   53 2    
   104   52   54 am   BACKBONE|DICT|INTERRES
   105   54   55 1    
   106   54  120 1    
   107   55   56 1    
   108   55   57 1    
   109   55  121 1    
   110   56  122 1    
   111   56  123 1    
   112   56  124 1    
   113   57   58 2    
   114   57   59 am   BACKBONE|DICT|INTERRES
   115   59   60 1    
   116   59  125 1    
   117   60   61 1    
   118   60   62 1    
   119   60  126 1    
   120   61  127 1    
   121   61  128 1    
   122   61  129 1    
   123   62   63 2    
   124   62   64 am   BACKBONE|DICT|INTERRES
   125   64   65 1    
   126   64  130 1    
   127   65   66 1    
   128   65   69 1    
   129   65  131 1    
   130   66   67 am   BACKBONE|DICT|INTERRES
   131   66   68 2    
   132   67  132 1    
   133   67  133 1    
   134   69   70 1    
   135   69  134 1    
   136   69  135 1    
   137   70   71 1    
   138   71  136 1    
   139   71  137 1    
@<TRIPOS>SUBSTRUCTURE
     1 UNK         1 GROUP             0       ****    0 ROOT    
