@<TRIPOS>MOLECULE
3R137
137   139    1
SMALL
USER_CHARGES


@<TRIPOS>ATOM
      1 CA         30.4733    1.5078   -3.5746 C.3       0 UNK        -0.2020 
      2 C          29.3621    0.4961   -3.8013 C.2       0 UNK         0.4855 
      3 O          28.8182    0.4184   -4.9045 O.2       0 UNK        -0.5197 
      4 N          29.0185   -0.2752   -2.7608 N.am      1 UNK        -0.4892 
      5 CA         27.9983   -1.3310   -2.8001 C.3       1 UNK         0.0835 
      6 C6         27.9708   -2.1977   -1.5165 C.3       12 UNK        -0.0855 
      7 S7         29.6162   -2.7800   -0.9815 S.3       12 UNK        -0.2931 
      8 C8         29.7333   -4.4150   -1.7768 C.3       12 UNK         0.0378 
      9 C9         30.1211   -4.3214   -3.2473 C.ar      12 UNK        -0.0802 
     10 C10        31.3574   -3.7796   -3.6116 C.ar      12 UNK        -0.0944 
     11 C11        31.7512   -3.7299   -4.9528 C.ar      12 UNK        -0.0787 
     12 C12        30.8915   -4.2315   -5.9361 C.ar      12 UNK        -0.0862 
     13 C13        29.6627   -4.8012   -5.5850 C.ar      12 UNK        -0.0733 
     14 C14        29.2806   -4.8359   -4.2388 C.ar      12 UNK        -0.0832 
     15 C15        28.7846   -5.4463   -6.6520 C.3       12 UNK         0.0240 
     16 S16        27.6036   -4.2771   -7.3931 S.3       12 UNK        -0.2522 
     17 C17        26.5203   -3.9328   -5.9704 C.3       12 UNK        -0.0967 
     18 CA         25.0683   -3.5344   -6.3328 C.3       5 UNK         0.0660 
     19 N          24.2766   -3.3742   -5.1147 N.am      5 UNK        -0.4015 
     20 C          23.3141   -4.1942   -4.6844 C.2       4 UNK         0.4946 
     21 O          22.9403   -5.2027   -5.2850 O.2       4 UNK        -0.5353 
     22 CA         22.6658   -3.8293   -3.3381 C.3       4 UNK         0.0277 
     23 CB         23.5248   -4.3477   -2.1727 C.3       4 UNK        -0.1981 
     24 N          22.4499   -2.3891   -3.1732 N.am      4 UNK        -0.4209 
     25 C          21.5610   -1.6568   -3.8559 C.2       3 UNK         0.4942 
     26 O          20.8098   -2.1232   -4.7127 O.2       3 UNK        -0.5208 
     27 CA         21.4861   -0.1501   -3.5398 C.3       3 UNK         0.0250 
     28 CB         20.6195    0.1135   -2.2924 C.3       3 UNK        -0.1990 
     29 N          22.7886    0.5291   -3.4509 N.am      3 UNK        -0.4232 
     30 C          23.7660    0.3599   -2.5488 C.2       2 UNK         0.4993 
     31 O          23.6988   -0.4074   -1.5853 O.2       2 UNK        -0.5286 
     32 CA         25.0486    1.1783   -2.7825 C.3       2 UNK         0.0209 
     33 CB         25.0581    2.4241   -1.8823 C.3       2 UNK        -0.1931 
     34 N          26.2837    0.4174   -2.5597 N.am      2 UNK        -0.4546 
     35 C          26.5893   -0.7762   -3.0919 C.2       1 UNK         0.5154 
     36 O          25.8294   -1.4172   -3.8186 O.2       1 UNK        -0.5181 
     37 C          24.9984   -2.2329   -7.1518 C.2       5 UNK         0.5014 
     38 O          24.7243   -2.2865   -8.3517 O.2       5 UNK        -0.5248 
     39 N          25.2285   -1.0937   -6.4785 N.am      6 UNK        -0.4434 
     40 CA         25.3004    0.2670   -7.0206 C.3       6 UNK         0.0363 
     41 CB         23.9248    0.7276   -7.5476 C.3       6 UNK        -0.1936 
     42 C          26.4386    0.4339   -8.0466 C.2       6 UNK         0.5081 
     43 O          26.2576    1.0933   -9.0715 O.2       6 UNK        -0.5248 
     44 N          27.5981   -0.1675   -7.7438 N.am      7 UNK        -0.4718 
     45 CA         28.8263   -0.0563   -8.5332 C.3       7 UNK         0.0273 
     46 CB         29.8250   -1.1335   -8.0793 C.3       7 UNK        -0.1935 
     47 C          29.4496    1.3450   -8.4401 C.2       7 UNK         0.5018 
     48 O          29.9476    1.8529   -9.4465 O.2       7 UNK        -0.5186 
     49 N          29.3938    1.9459   -7.2410 N.am      8 UNK        -0.4240 
     50 CA         29.8674    3.2919   -6.9056 C.3       8 UNK         0.0235 
     51 CB         28.9099    4.3527   -7.4953 C.3       8 UNK        -0.2000 
     52 C          31.3440    3.4762   -7.3013 C.2       8 UNK         0.4941 
     53 O          32.1982    2.7732   -6.7613 O.2       8 UNK        -0.5273 
     54 N          31.6139    4.3645   -8.2672 N.am      9 UNK        -0.4262 
     55 CA         32.9398    4.6413   -8.8256 C.3       9 UNK         0.0264 
     56 CB         32.8357    5.8300   -9.7955 C.3       9 UNK        -0.1955 
     57 C          33.6153    3.4403   -9.5174 C.2       9 UNK         0.5031 
     58 O          34.8385    3.4594   -9.6640 O.2       9 UNK        -0.5390 
     59 N          32.8404    2.4223   -9.9259 N.am      10 UNK        -0.4204 
     60 CA         33.3715    1.1772  -10.4885 C.3       10 UNK         0.0237 
     61 CB         32.2777    0.4581  -11.2953 C.3       10 UNK        -0.1985 
     62 C          33.9647    0.2384   -9.4214 C.2       10 UNK         0.4970 
     63 O          34.7641   -0.6274   -9.7798 O.2       10 UNK        -0.4914 
     64 N          33.5768    0.4079   -8.1491 N.am      11 UNK        -0.4285 
     65 CA         34.1455   -0.3231   -7.0130 C.3       11 UNK         0.1007 
     66 C          35.4653    0.3503   -6.5477 C.2       11 UNK         0.5703 
     67 N          36.5365   -0.4155   -6.3876 N.am      11 UNK        -0.7361 
     68 O          35.5202    1.5550   -6.3095 O.2       11 UNK        -0.4986 
     69 C69        33.1016   -0.4598   -5.8737 C.3       12 UNK        -0.0947 
     70 S70        33.6008   -1.6423   -4.5808 S.3       12 UNK        -0.2240 
     71 C71        33.1455   -3.2414   -5.3314 C.3       12 UNK         0.0194 
     72 H72        31.0907    1.5957   -4.4670 H         1 UNK         0.0906 
     73 H73        30.0505    2.4877   -3.3557 H         1 UNK         0.0906 
     74 H74        31.1199    1.2167   -2.7470 H         1 UNK         0.0906 
     75 H75        29.5199   -0.1919   -1.8873 H         1 UNK         0.3140 
     76 H76        28.2614   -1.9833   -3.6354 H         1 UNK         0.1085 
     77 H77        27.3113   -3.0572   -1.6527 H         1 UNK         0.0836 
     78 H78        27.5493   -1.6297   -0.6844 H         1 UNK         0.0836 
     79 H79        28.7955   -4.9569   -1.6453 H         1 UNK         0.0731 
     80 H80        30.4941   -4.9983   -1.2561 H         1 UNK         0.0731 
     81 H81        32.0245   -3.4146   -2.8426 H         1 UNK         0.1312 
     82 H82        31.1963   -4.2213   -6.9738 H         1 UNK         0.1406 
     83 H83        28.3417   -5.2928   -3.9587 H         1 UNK         0.1631 
     84 H84        28.2426   -6.2965   -6.2350 H         1 UNK         0.0717 
     85 H85        29.4116   -5.8542   -7.4462 H         1 UNK         0.0717 
     86 H86        26.4827   -4.8275   -5.3480 H         1 UNK         0.0934 
     87 H87        27.0011   -3.1653   -5.3641 H         1 UNK         0.0934 
     88 H88        24.6390   -4.3263   -6.9504 H         1 UNK         0.0739 
     89 H89        24.5385   -2.5907   -4.5237 H         1 UNK         0.3093 
     90 H90        21.6928   -4.3235   -3.2939 H         1 UNK         0.0818 
     91 H91        24.5007   -3.8608   -2.1411 H         1 UNK         0.0819 
     92 H92        23.0351   -4.1772   -1.2137 H         1 UNK         0.0819 
     93 H93        23.6971   -5.4214   -2.2610 H         1 UNK         0.0819 
     94 H94        23.0154   -1.9017   -2.4809 H         1 UNK         0.3041 
     95 H95        20.9776    0.3140   -4.3868 H         1 UNK         0.0784 
     96 H96        19.6207   -0.3066   -2.4183 H         1 UNK         0.0793 
     97 H97        21.0454   -0.3334   -1.3937 H         1 UNK         0.0793 
     98 H98        20.5006    1.1817   -2.1112 H         1 UNK         0.0793 
     99 H99        22.9599    1.1847   -4.2006 H         1 UNK         0.3024 
    100 H100       25.0663    1.5076   -3.8229 H         1 UNK         0.1171 
    101 H101       25.9182    3.0607   -2.0912 H         1 UNK         0.0786 
    102 H102       24.1641    3.0293   -2.0396 H         1 UNK         0.0786 
    103 H103       25.0870    2.1551   -0.8254 H         1 UNK         0.0786 
    104 H104       26.9820    0.8566   -1.9782 H         1 UNK         0.2977 
    105 H105       25.4686   -1.1746   -5.4909 H         1 UNK         0.3127 
    106 H106       25.5629    0.9134   -6.1822 H         1 UNK         0.0770 
    107 H107       23.6260    0.1732   -8.4376 H         1 UNK         0.0814 
    108 H108       23.9446    1.7843   -7.8169 H         1 UNK         0.0814 
    109 H109       23.1463    0.5981   -6.7961 H         1 UNK         0.0814 
    110 H110       27.6718   -0.6559   -6.8621 H         1 UNK         0.2983 
    111 H111       28.5810   -0.2351   -9.5825 H         1 UNK         0.0947 
    112 H112       30.7987   -1.0008   -8.5522 H         1 UNK         0.0806 
    113 H113       29.4736   -2.1302   -8.3440 H         1 UNK         0.0806 
    114 H114       29.9763   -1.1126   -6.9998 H         1 UNK         0.0806 
    115 H115       29.0362    1.3984   -6.4597 H         1 UNK         0.3000 
    116 H116       29.8279    3.3786   -5.8194 H         1 UNK         0.0850 
    117 H117       29.2165    5.3625   -7.2188 H         1 UNK         0.0810 
    118 H118       27.8984    4.2142   -7.1129 H         1 UNK         0.0810 
    119 H119       28.8532    4.3027   -8.5834 H         1 UNK         0.0810 
    120 H120       30.8389    4.8666   -8.6758 H         1 UNK         0.3040 
    121 H121       33.5864    4.9332   -7.9953 H         1 UNK         0.0766 
    122 H122       32.4538    6.7202   -9.2953 H         1 UNK         0.0812 
    123 H123       32.1788    5.6073  -10.6373 H         1 UNK         0.0812 
    124 H124       33.8137    6.0870  -10.2052 H         1 UNK         0.0812 
    125 H125       31.8361    2.4615   -9.7702 H         1 UNK         0.3205 
    126 H126       34.1773    1.4317  -11.1806 H         1 UNK         0.0754 
    127 H127       31.8406    1.1145  -12.0480 H         1 UNK         0.0769 
    128 H128       31.4725    0.0947  -10.6577 H         1 UNK         0.0769 
    129 H129       32.6880   -0.4066  -11.8186 H         1 UNK         0.0769 
    130 H130       32.9924    1.2000   -7.9063 H         1 UNK         0.2981 
    131 H131       34.3820   -1.3319   -7.3561 H         1 UNK         0.0541 
    132 H132       36.4997   -1.4065   -6.5679 H         1 UNK         0.3459 
    133 H133       37.3976    0.0057   -6.0763 H         1 UNK         0.3459 
    134 H134       32.9227    0.5075   -5.4037 H         1 UNK         0.0612 
    135 H135       32.1417   -0.7854   -6.2725 H         1 UNK         0.0612 
    136 H136       33.8652   -3.9886   -4.9949 H         1 UNK         0.0624 
    137 H137       33.2559   -3.1830   -6.4148 H         1 UNK         0.0624 
@<TRIPOS>BOND
     1    1    2 1    
     2    1   72 1    
     3    1   73 1    
     4    1   74 1    
     5    2    3 2    
     6    2    4 am   BACKBONE|DICT|INTERRES
     7    4    5 1    
     8    4   75 1    
     9    5    6 1    
    10    5   35 1    
    11    5   76 1    
    12    6    7 1    
    13    6   77 1    
    14    6   78 1    
    15    7    8 1    
    16    8    9 1    
    17    8   79 1    
    18    8   80 1    
    19    9   10 ar   
    20    9   14 ar   
    21   10   11 ar   
    22   10   81 1    
    23   11   12 ar   
    24   11   71 1    
    25   12   13 ar   
    26   12   82 1    
    27   13   14 ar   
    28   13   15 1    
    29   14   83 1    
    30   15   16 1    
    31   15   84 1    
    32   15   85 1    
    33   16   17 1    
    34   17   18 1    
    35   17   86 1    
    36   17   87 1    
    37   18   19 1    
    38   18   37 1    
    39   18   88 1    
    40   19   20 am   BACKBONE|DICT|INTERRES
    41   19   89 1    
    42   20   21 2    
    43   20   22 1    
    44   22   23 1    
    45   22   24 1    
    46   22   90 1    
    47   23   91 1    
    48   23   92 1    
    49   23   93 1    
    50   24   25 am   BACKBONE|DICT|INTERRES
    51   24   94 1    
    52   25   26 2    
    53   25   27 1    
    54   27   28 1    
    55   27   29 1    
    56   27   95 1    
    57   28   96 1    
    58   28   97 1    
    59   28   98 1    
    60   29   30 am   BACKBONE|DICT|INTERRES
    61   29   99 1    
    62   30   31 2    
    63   30   32 1    
    64   32   33 1    
    65   32   34 1    
    66   32  100 1    
    67   33  101 1    
    68   33  102 1    
    69   33  103 1    
    70   34   35 am   BACKBONE|DICT|INTERRES
    71   34  104 1    
    72   35   36 2    
    73   37   38 2    
    74   37   39 am   BACKBONE|DICT|INTERRES
    75   39   40 1    
    76   39  105 1    
    77   40   41 1    
    78   40   42 1    
    79   40  106 1    
    80   41  107 1    
    81   41  108 1    
    82   41  109 1    
    83   42   43 2    
    84   42   44 am   BACKBONE|DICT|INTERRES
    85   44   45 1    
    86   44  110 1    
    87   45   46 1    
    88   45   47 1    
    89   45  111 1    
    90   46  112 1    
    91   46  113 1    
    92   46  114 1    
    93   47   48 2    
    94   47   49 am   BACKBONE|DICT|INTERRES
    95   49   50 1    
    96   49  115 1    
    97   50   51 1    
    98   50   52 1    
    99   50  116 1    
   100   51  117 1    
   101   51  118 1    
   102   51  119 1    
   103   52   53 2    
   104   52   54 am   BACKBONE|DICT|INTERRES
   105   54   55 1    
   106   54  120 1    
   107   55   56 1    
   108   55   57 1    
   109   55  121 1    
   110   56  122 1    
   111   56  123 1    
   112   56  124 1    
   113   57   58 2    
   114   57   59 am   BACKBONE|DICT|INTERRES
   115   59   60 1    
   116   59  125 1    
   117   60   61 1    
   118   60   62 1    
   119   60  126 1    
   120   61  127 1    
   121   61  128 1    
   122   61  129 1    
   123   62   63 2    
   124   62   64 am   BACKBONE|DICT|INTERRES
   125   64   65 1    
   126   64  130 1    
   127   65   66 1    
   128   65   69 1    
   129   65  131 1    
   130   66   67 am   BACKBONE|DICT|INTERRES
   131   66   68 2    
   132   67  132 1    
   133   67  133 1    
   134   69   70 1    
   135   69  134 1    
   136   69  135 1    
   137   70   71 1    
   138   71  136 1    
   139   71  137 1    
@<TRIPOS>SUBSTRUCTURE
     1 UNK         1 GROUP             0       ****    0 ROOT    
