@<TRIPOS>MOLECULE
3R137
137   139    1
SMALL
USER_CHARGES


@<TRIPOS>ATOM
      1 CA         25.6844   -3.7467    2.6611 C.3       0 UNK        -0.2020 
      2 C          26.2352   -4.9158    1.8478 C.2       0 UNK         0.4855 
      3 O          25.7987   -6.0464    2.0536 O.2       0 UNK        -0.5197 
      4 N          27.1926   -4.7162    0.9291 N.am      1 UNK        -0.4892 
      5 CA         27.7791   -3.4379    0.5038 C.3       1 UNK         0.0835 
      6 C6         29.0465   -3.6800   -0.3560 C.3       12 UNK        -0.0855 
      7 S7         30.1417   -2.2266   -0.5107 S.3       12 UNK        -0.2931 
      8 C8         29.5449   -1.4129   -2.0297 C.3       12 UNK         0.0378 
      9 C9         30.0758   -2.0449   -3.3103 C.ar      12 UNK        -0.0802 
     10 C10        31.1469   -1.4571   -3.9883 C.ar      12 UNK        -0.0944 
     11 C11        31.5937   -1.9723   -5.2137 C.ar      12 UNK        -0.0787 
     12 C12        30.9821   -3.1206   -5.7292 C.ar      12 UNK        -0.0862 
     13 C13        29.9119   -3.7215   -5.0600 C.ar      12 UNK        -0.0733 
     14 C14        29.4529   -3.1659   -3.8635 C.ar      12 UNK        -0.0832 
     15 C15        29.2506   -4.9736   -5.6219 C.3       12 UNK         0.0240 
     16 S16        28.1359   -4.6266   -7.0208 S.3       12 UNK        -0.2522 
     17 C17        26.8362   -3.5972   -6.2527 C.3       12 UNK        -0.0967 
     18 CA         26.5809   -2.2853   -7.0324 C.3       5 UNK         0.0660 
     19 N          25.3522   -1.6197   -6.5994 N.am      5 UNK        -0.4015 
     20 C          24.7355   -0.6469   -7.2869 C.2       4 UNK         0.4946 
     21 O          25.0983   -0.2498   -8.3942 O.2       4 UNK        -0.5353 
     22 CA         23.5446    0.0353   -6.5938 C.3       4 UNK         0.0277 
     23 CB         22.2660   -0.8025   -6.7544 C.3       4 UNK        -0.1981 
     24 N          23.7995    0.2866   -5.1728 N.am      4 UNK        -0.4209 
     25 C          24.7495    1.1151   -4.7145 C.2       3 UNK         0.4942 
     26 O          25.4520    1.8145   -5.4436 O.2       3 UNK        -0.5208 
     27 CA         24.9843    1.1413   -3.1940 C.3       3 UNK         0.0250 
     28 CB         24.1438    2.2496   -2.5408 C.3       3 UNK        -0.1990 
     29 N          24.7151   -0.1370   -2.5249 N.am      3 UNK        -0.4232 
     30 C          25.3823   -1.2783   -2.7480 C.2       2 UNK         0.4993 
     31 O          26.2763   -1.3992   -3.5897 O.2       2 UNK        -0.5286 
     32 CA         24.9311   -2.5073   -1.9389 C.3       2 UNK         0.0209 
     33 CB         24.2924   -3.5499   -2.8719 C.3       2 UNK        -0.1931 
     34 N          26.0216   -3.1396   -1.1896 N.am      2 UNK        -0.4546 
     35 C          26.7354   -2.5544   -0.2155 C.2       1 UNK         0.5154 
     36 O          26.5566   -1.3965    0.1630 O.2       1 UNK        -0.5181 
     37 C          27.7753   -1.3121   -6.9895 C.2       5 UNK         0.5014 
     38 O          28.5472   -1.2793   -7.9465 O.2       5 UNK        -0.5248 
     39 N          27.8666   -0.4923   -5.9300 N.am      6 UNK        -0.4434 
     40 CA         28.8818    0.5564   -5.7730 C.3       6 UNK         0.0363 
     41 CB         28.6940    1.2721   -4.4259 C.3       6 UNK        -0.1936 
     42 C          28.8982    1.5731   -6.9242 C.2       6 UNK         0.5081 
     43 O          29.9806    1.9630   -7.3696 O.2       6 UNK        -0.5248 
     44 N          27.7038    1.9605   -7.3893 N.am      7 UNK        -0.4718 
     45 CA         27.5012    2.8047   -8.5630 C.3       7 UNK         0.0273 
     46 CB         26.0587    3.3358   -8.5713 C.3       7 UNK        -0.1935 
     47 C          27.8259    2.0686   -9.8727 C.2       7 UNK         0.5018 
     48 O          28.5648    2.6122  -10.6931 O.2       7 UNK        -0.5186 
     49 N          27.2835    0.8530  -10.0463 N.am      8 UNK        -0.4240 
     50 CA         27.4411    0.0354  -11.2555 C.3       8 UNK         0.0235 
     51 CB         26.5107   -1.1857  -11.1869 C.3       8 UNK        -0.2000 
     52 C          28.8893   -0.4061  -11.5238 C.2       8 UNK         0.4941 
     53 O          29.3446   -0.3181  -12.6648 O.2       8 UNK        -0.5273 
     54 N          29.5908   -0.8549  -10.4747 N.am      9 UNK        -0.4262 
     55 CA         31.0042   -1.2395  -10.5234 C.3       9 UNK         0.0264 
     56 CB         31.2915   -2.2373   -9.3910 C.3       9 UNK        -0.1955 
     57 C          31.9593   -0.0337  -10.4461 C.2       9 UNK         0.5031 
     58 O          33.1545   -0.2107  -10.6855 O.2       9 UNK        -0.5390 
     59 N          31.4226    1.1538  -10.1256 N.am      10 UNK        -0.4204 
     60 CA         32.0965    2.4506  -10.0244 C.3       10 UNK         0.0237 
     61 CB         32.5664    2.9286  -11.4152 C.3       10 UNK        -0.1985 
     62 C          33.2162    2.4576   -8.9682 C.2       10 UNK         0.4970 
     63 O          34.3615    2.7873   -9.2848 O.2       10 UNK        -0.4914 
     64 N          32.8556    2.1054   -7.7288 N.am      11 UNK        -0.4285 
     65 CA         33.7436    2.1660   -6.5556 C.3       11 UNK         0.1007 
     66 C          33.0744    2.7893   -5.2960 C.2       11 UNK         0.5703 
     67 N          31.7875    3.1200   -5.3147 N.am      11 UNK        -0.7361 
     68 O          33.7478    3.0218   -4.2948 O.2       11 UNK        -0.4986 
     69 C69        34.5287    0.8320   -6.3324 C.3       12 UNK        -0.0947 
     70 S70        33.8786   -0.3241   -5.0746 S.3       12 UNK        -0.2240 
     71 C71        32.6553   -1.2551   -6.0489 C.3       12 UNK         0.0194 
     72 H72        26.4738   -3.0773    2.9996 H         1 UNK         0.0906 
     73 H73        24.9649   -3.1761    2.0749 H         1 UNK         0.0906 
     74 H74        25.1703   -4.1141    3.5491 H         1 UNK         0.0906 
     75 H75        27.5362   -5.5283    0.4357 H         1 UNK         0.3140 
     76 H76        28.0959   -2.9048    1.4023 H         1 UNK         0.1085 
     77 H77        29.6550   -4.4500    0.1217 H         1 UNK         0.0836 
     78 H78        28.7946   -4.0931   -1.3288 H         1 UNK         0.0836 
     79 H79        28.4573   -1.3940   -2.0528 H         1 UNK         0.0731 
     80 H80        29.8533   -0.3677   -1.9819 H         1 UNK         0.0731 
     81 H81        31.5922   -0.5602   -3.5819 H         1 UNK         0.1312 
     82 H82        31.3137   -3.5327   -6.6722 H         1 UNK         0.1406 
     83 H83        28.5919   -3.5983   -3.3781 H         1 UNK         0.1631 
     84 H84        28.6932   -5.4982   -4.8443 H         1 UNK         0.0717 
     85 H85        30.0238   -5.6665   -5.9569 H         1 UNK         0.0717 
     86 H86        25.9249   -4.1970   -6.2358 H         1 UNK         0.0934 
     87 H87        27.0693   -3.3891   -5.2093 H         1 UNK         0.0934 
     88 H88        26.4323   -2.5584   -8.0791 H         1 UNK         0.0739 
     89 H89        25.0286   -1.8360   -5.6684 H         1 UNK         0.3093 
     90 H90        23.3863    0.9993   -7.0824 H         1 UNK         0.0818 
     91 H91        21.3999   -0.2874   -6.3385 H         1 UNK         0.0819 
     92 H92        22.0536   -0.9887   -7.8083 H         1 UNK         0.0819 
     93 H93        22.3484   -1.7725   -6.2626 H         1 UNK         0.0819 
     94 H94        23.2485   -0.2312   -4.5040 H         1 UNK         0.3041 
     95 H95        26.0375    1.3766   -3.0317 H         1 UNK         0.0784 
     96 H96        24.3457    3.2163   -3.0048 H         1 UNK         0.0793 
     97 H97        23.0743    2.0586   -2.6382 H         1 UNK         0.0793 
     98 H98        24.3733    2.3488   -1.4796 H         1 UNK         0.0793 
     99 H99        23.9945   -0.1259   -1.8171 H         1 UNK         0.3024 
    100 H100       24.1780   -2.1933   -1.2127 H         1 UNK         0.1171 
    101 H101       23.8913   -4.3931   -2.3090 H         1 UNK         0.0786 
    102 H102       23.4644   -3.1185   -3.4361 H         1 UNK         0.0786 
    103 H103       25.0109   -3.9410   -3.5934 H         1 UNK         0.0786 
    104 H104       26.2230   -4.1021   -1.4168 H         1 UNK         0.2977 
    105 H105       27.2206   -0.6283   -5.1580 H         1 UNK         0.3127 
    106 H106       29.8500    0.0609   -5.7743 H         1 UNK         0.0770 
    107 H107       27.9064    2.0243   -4.4695 H         1 UNK         0.0814 
    108 H108       29.6097    1.7824   -4.1288 H         1 UNK         0.0814 
    109 H109       28.4363    0.5756   -3.6312 H         1 UNK         0.0814 
    110 H110       26.8722    1.6427   -6.9005 H         1 UNK         0.2983 
    111 H111       28.1771    3.6595   -8.4859 H         1 UNK         0.0947 
    112 H112       25.8847    3.9818   -9.4328 H         1 UNK         0.0806 
    113 H113       25.8496    3.9230   -7.6768 H         1 UNK         0.0806 
    114 H114       25.3280    2.5272   -8.6146 H         1 UNK         0.0806 
    115 H115       26.6653    0.4843   -9.3279 H         1 UNK         0.3000 
    116 H116       27.1267    0.6486  -12.1028 H         1 UNK         0.0850 
    117 H117       26.5926   -1.7918  -12.0902 H         1 UNK         0.0810 
    118 H118       25.4672   -0.8848  -11.0924 H         1 UNK         0.0810 
    119 H119       26.7522   -1.8276  -10.3396 H         1 UNK         0.0810 
    120 H120       29.1332   -0.9318   -9.5636 H         1 UNK         0.3040 
    121 H121       31.1985   -1.7442  -11.4721 H         1 UNK         0.0766 
    122 H122       31.0954   -1.7933   -8.4167 H         1 UNK         0.0812 
    123 H123       32.3327   -2.5619   -9.4027 H         1 UNK         0.0812 
    124 H124       30.6697   -3.1285   -9.4795 H         1 UNK         0.0812 
    125 H125       30.4291    1.1748   -9.9378 H         1 UNK         0.3205 
    126 H126       31.3419    3.1575   -9.6753 H         1 UNK         0.0754 
    127 H127       32.9816    3.9358  -11.3621 H         1 UNK         0.0769 
    128 H128       31.7372    2.9571  -12.1224 H         1 UNK         0.0769 
    129 H129       33.3385    2.2794  -11.8296 H         1 UNK         0.0769 
    130 H130       31.8810    1.8778   -7.5522 H         1 UNK         0.2981 
    131 H131       34.5032    2.9145   -6.7898 H         1 UNK         0.0541 
    132 H132       31.2031    2.9353   -6.1197 H         1 UNK         0.3459 
    133 H133       31.3909    3.5525   -4.4964 H         1 UNK         0.3459 
    134 H134       34.6611    0.2962   -7.2741 H         1 UNK         0.0612 
    135 H135       35.5402    1.0808   -6.0079 H         1 UNK         0.0612 
    136 H136       33.1872   -1.9654   -6.6836 H         1 UNK         0.0624 
    137 H137       32.1418   -0.5600   -6.7136 H         1 UNK         0.0624 
@<TRIPOS>BOND
     1    1    2 1    
     2    1   72 1    
     3    1   73 1    
     4    1   74 1    
     5    2    3 2    
     6    2    4 am   BACKBONE|DICT|INTERRES
     7    4    5 1    
     8    4   75 1    
     9    5    6 1    
    10    5   35 1    
    11    5   76 1    
    12    6    7 1    
    13    6   77 1    
    14    6   78 1    
    15    7    8 1    
    16    8    9 1    
    17    8   79 1    
    18    8   80 1    
    19    9   10 ar   
    20    9   14 ar   
    21   10   11 ar   
    22   10   81 1    
    23   11   12 ar   
    24   11   71 1    
    25   12   13 ar   
    26   12   82 1    
    27   13   14 ar   
    28   13   15 1    
    29   14   83 1    
    30   15   16 1    
    31   15   84 1    
    32   15   85 1    
    33   16   17 1    
    34   17   18 1    
    35   17   86 1    
    36   17   87 1    
    37   18   19 1    
    38   18   37 1    
    39   18   88 1    
    40   19   20 am   BACKBONE|DICT|INTERRES
    41   19   89 1    
    42   20   21 2    
    43   20   22 1    
    44   22   23 1    
    45   22   24 1    
    46   22   90 1    
    47   23   91 1    
    48   23   92 1    
    49   23   93 1    
    50   24   25 am   BACKBONE|DICT|INTERRES
    51   24   94 1    
    52   25   26 2    
    53   25   27 1    
    54   27   28 1    
    55   27   29 1    
    56   27   95 1    
    57   28   96 1    
    58   28   97 1    
    59   28   98 1    
    60   29   30 am   BACKBONE|DICT|INTERRES
    61   29   99 1    
    62   30   31 2    
    63   30   32 1    
    64   32   33 1    
    65   32   34 1    
    66   32  100 1    
    67   33  101 1    
    68   33  102 1    
    69   33  103 1    
    70   34   35 am   BACKBONE|DICT|INTERRES
    71   34  104 1    
    72   35   36 2    
    73   37   38 2    
    74   37   39 am   BACKBONE|DICT|INTERRES
    75   39   40 1    
    76   39  105 1    
    77   40   41 1    
    78   40   42 1    
    79   40  106 1    
    80   41  107 1    
    81   41  108 1    
    82   41  109 1    
    83   42   43 2    
    84   42   44 am   BACKBONE|DICT|INTERRES
    85   44   45 1    
    86   44  110 1    
    87   45   46 1    
    88   45   47 1    
    89   45  111 1    
    90   46  112 1    
    91   46  113 1    
    92   46  114 1    
    93   47   48 2    
    94   47   49 am   BACKBONE|DICT|INTERRES
    95   49   50 1    
    96   49  115 1    
    97   50   51 1    
    98   50   52 1    
    99   50  116 1    
   100   51  117 1    
   101   51  118 1    
   102   51  119 1    
   103   52   53 2    
   104   52   54 am   BACKBONE|DICT|INTERRES
   105   54   55 1    
   106   54  120 1    
   107   55   56 1    
   108   55   57 1    
   109   55  121 1    
   110   56  122 1    
   111   56  123 1    
   112   56  124 1    
   113   57   58 2    
   114   57   59 am   BACKBONE|DICT|INTERRES
   115   59   60 1    
   116   59  125 1    
   117   60   61 1    
   118   60   62 1    
   119   60  126 1    
   120   61  127 1    
   121   61  128 1    
   122   61  129 1    
   123   62   63 2    
   124   62   64 am   BACKBONE|DICT|INTERRES
   125   64   65 1    
   126   64  130 1    
   127   65   66 1    
   128   65   69 1    
   129   65  131 1    
   130   66   67 am   BACKBONE|DICT|INTERRES
   131   66   68 2    
   132   67  132 1    
   133   67  133 1    
   134   69   70 1    
   135   69  134 1    
   136   69  135 1    
   137   70   71 1    
   138   71  136 1    
   139   71  137 1    
@<TRIPOS>SUBSTRUCTURE
     1 UNK         1 GROUP             0       ****    0 ROOT    
