@<TRIPOS>MOLECULE
3R137
137   139    1
SMALL
USER_CHARGES


@<TRIPOS>ATOM
      1 CA         26.6865   -9.0304    0.2983 C.3       0 UNK        -0.2020 
      2 C          27.2197   -7.6182    0.1069 C.2       0 UNK         0.4855 
      3 O          28.2569   -7.2737    0.6741 O.2       0 UNK        -0.5197 
      4 N          26.5201   -6.7992   -0.6850 N.am      1 UNK        -0.4892 
      5 CA         26.8677   -5.4066   -0.9590 C.3       1 UNK         0.0835 
      6 C6         28.0124   -5.2722   -2.0016 C.3       12 UNK        -0.0855 
      7 S7         28.3806   -3.5543   -2.5041 S.3       12 UNK        -0.2931 
      8 C8         29.8315   -3.1849   -1.4776 C.3       12 UNK         0.0378 
      9 C9         30.4671   -1.8654   -1.8862 C.ar      12 UNK        -0.0802 
     10 C10        31.5999   -1.8569   -2.7064 C.ar      12 UNK        -0.0944 
     11 C11        32.2174   -0.6534   -3.0598 C.ar      12 UNK        -0.0787 
     12 C12        31.6991    0.5468   -2.5620 C.ar      12 UNK        -0.0862 
     13 C13        30.5477    0.5569   -1.7679 C.ar      12 UNK        -0.0733 
     14 C14        29.9359   -0.6545   -1.4318 C.ar      12 UNK        -0.0832 
     15 C15        29.9857    1.8718   -1.2428 C.3       12 UNK         0.0240 
     16 S16        28.6729    2.5454   -2.3141 S.3       12 UNK        -0.2522 
     17 C17        29.6267    3.1014   -3.7754 C.3       12 UNK        -0.0967 
     18 CA         29.1260    2.5222   -5.1248 C.3       5 UNK         0.0660 
     19 N          28.7757    1.1025   -5.0345 N.am      5 UNK        -0.4015 
     20 C          28.6274    0.2684   -6.0710 C.2       4 UNK         0.4946 
     21 O          28.8912    0.5715   -7.2342 O.2       4 UNK        -0.5353 
     22 CA         28.0567   -1.1310   -5.7718 C.3       4 UNK         0.0277 
     23 CB         29.1916   -2.1538   -5.6266 C.3       4 UNK        -0.1981 
     24 N          27.1795   -1.1947   -4.5946 N.am      4 UNK        -0.4209 
     25 C          26.0543   -0.4797   -4.4502 C.2       3 UNK         0.4942 
     26 O          25.6613    0.3298   -5.2926 O.2       3 UNK        -0.5208 
     27 CA         25.2654   -0.6812   -3.1421 C.3       3 UNK         0.0250 
     28 CB         24.0295    0.2373   -3.0463 C.3       3 UNK        -0.1990 
     29 N          24.8782   -2.0758   -2.9010 N.am      3 UNK        -0.4232 
     30 C          24.1855   -2.8991   -3.7033 C.2       2 UNK         0.4993 
     31 O          23.7869   -2.5900   -4.8273 O.2       2 UNK        -0.5286 
     32 CA         23.8865   -4.3107   -3.1472 C.3       2 UNK         0.0209 
     33 CB         23.2936   -5.2545   -4.2114 C.3       2 UNK        -0.1931 
     34 N          25.0670   -4.9517   -2.5558 N.am      2 UNK        -0.4546 
     35 C          25.5750   -4.6754   -1.3468 C.2       1 UNK         0.5154 
     36 O          25.0669   -3.8704   -0.5651 O.2       1 UNK        -0.5181 
     37 C          27.9971    3.3938   -5.7163 C.2       5 UNK         0.5014 
     38 O          28.3079    4.4088   -6.3404 O.2       5 UNK        -0.5248 
     39 N          26.7253    3.0037   -5.5352 N.am      6 UNK        -0.4434 
     40 CA         25.5720    3.6892   -6.1284 C.3       6 UNK         0.0363 
     41 CB         24.2974    3.3865   -5.3245 C.3       6 UNK        -0.1936 
     42 C          25.3974    3.3024   -7.6046 C.2       6 UNK         0.5081 
     43 O          25.0364    4.1559   -8.4151 O.2       6 UNK        -0.5248 
     44 N          25.7017    2.0380   -7.9362 N.am      7 UNK        -0.4718 
     45 CA         25.8358    1.5550   -9.3154 C.3       7 UNK         0.0273 
     46 CB         25.9002    0.0197   -9.3123 C.3       7 UNK        -0.1935 
     47 C          27.0675    2.1459  -10.0291 C.2       7 UNK         0.5018 
     48 O          27.0535    2.2817  -11.2532 O.2       7 UNK        -0.5186 
     49 N          28.1051    2.4761   -9.2465 N.am      8 UNK        -0.4240 
     50 CA         29.3890    3.0962   -9.5872 C.3       8 UNK         0.0235 
     51 CB         29.2064    4.4658  -10.2688 C.3       8 UNK        -0.2000 
     52 C          30.3156    2.1764  -10.3911 C.2       8 UNK         0.4941 
     53 O          31.4454    1.9389   -9.9649 O.2       8 UNK        -0.5273 
     54 N          29.8185    1.6475  -11.5156 N.am      9 UNK        -0.4262 
     55 CA         30.5363    0.7406  -12.4156 C.3       9 UNK         0.0264 
     56 CB         29.7099    0.5468  -13.6972 C.3       9 UNK        -0.1955 
     57 C          30.8779   -0.6210  -11.7838 C.2       9 UNK         0.5031 
     58 O          31.8390   -1.2582  -12.2165 O.2       9 UNK        -0.5390 
     59 N          30.0919   -1.0420  -10.7831 N.am      10 UNK        -0.4204 
     60 CA         30.3119   -2.2675  -10.0168 C.3       10 UNK         0.0237 
     61 CB         29.0214   -2.6471   -9.2748 C.3       10 UNK        -0.1985 
     62 C          31.5020   -2.1472   -9.0493 C.2       10 UNK         0.4970 
     63 O          32.3055   -3.0773   -8.9742 O.2       10 UNK        -0.4914 
     64 N          31.5980   -1.0164   -8.3353 N.am      11 UNK        -0.4285 
     65 CA         32.7319   -0.6984   -7.4548 C.3       11 UNK         0.1007 
     66 C          33.9851   -0.2393   -8.2541 C.2       11 UNK         0.5703 
     67 N          33.8385    0.5931   -9.2774 N.am      11 UNK        -0.7361 
     68 O          35.0997   -0.6655   -7.9603 O.2       11 UNK        -0.4986 
     69 C69        32.3053    0.2949   -6.3403 C.3       12 UNK        -0.0947 
     70 S70        33.6049    0.6987   -5.1232 S.3       12 UNK        -0.2240 
     71 C71        33.4719   -0.6798   -3.9315 C.3       12 UNK         0.0194 
     72 H72        25.7688   -9.2010   -0.2643 H         1 UNK         0.0906 
     73 H73        27.4266   -9.7585   -0.0327 H         1 UNK         0.0906 
     74 H74        26.4770   -9.2127    1.3520 H         1 UNK         0.0906 
     75 H75        25.6516   -7.1175   -1.0955 H         1 UNK         0.3140 
     76 H76        27.2107   -4.9487   -0.0278 H         1 UNK         0.1085 
     77 H77        27.7706   -5.8352   -2.9045 H         1 UNK         0.0836 
     78 H78        28.9204   -5.7344   -1.6117 H         1 UNK         0.0836 
     79 H79        30.5586   -3.9938   -1.5665 H         1 UNK         0.0731 
     80 H80        29.5349   -3.1492   -0.4282 H         1 UNK         0.0731 
     81 H81        32.0064   -2.7932   -3.0641 H         1 UNK         0.1312 
     82 H82        32.1991    1.4763   -2.7927 H         1 UNK         0.1406 
     83 H83        29.0544   -0.6570   -0.8046 H         1 UNK         0.1631 
     84 H84        30.7802    2.6114   -1.1313 H         1 UNK         0.0717 
     85 H85        29.5755    1.7202   -0.2433 H         1 UNK         0.0717 
     86 H86        29.6316    4.1936   -3.7882 H         1 UNK         0.0934 
     87 H87        30.6734    2.8339   -3.6510 H         1 UNK         0.0934 
     88 H88        29.9557    2.5962   -5.8317 H         1 UNK         0.0739 
     89 H89        28.5712    0.7646   -4.1049 H         1 UNK         0.3093 
     90 H90        27.4489   -1.4174   -6.6315 H         1 UNK         0.0818 
     91 H91        28.8050   -3.1696   -5.5455 H         1 UNK         0.0819 
     92 H92        29.7979   -1.9516   -4.7459 H         1 UNK         0.0819 
     93 H93        29.8604   -2.1331   -6.4850 H         1 UNK         0.0819 
     94 H94        27.4403   -1.8523   -3.8696 H         1 UNK         0.3041 
     95 H95        25.9420   -0.4053   -2.3317 H         1 UNK         0.0784 
     96 H96        24.3193    1.2869   -3.1015 H         1 UNK         0.0793 
     97 H97        23.3223    0.0493   -3.8552 H         1 UNK         0.0793 
     98 H98        23.5033    0.0984   -2.1019 H         1 UNK         0.0793 
     99 H99        25.1383   -2.4525   -1.9948 H         1 UNK         0.3024 
    100 H100       23.1331   -4.1815   -2.3664 H         1 UNK         0.1171 
    101 H101       23.0495   -6.2286   -3.7871 H         1 UNK         0.0786 
    102 H102       22.3710   -4.8471   -4.6274 H         1 UNK         0.0786 
    103 H103       23.9844   -5.4118   -5.0407 H         1 UNK         0.0786 
    104 H104       25.5700   -5.5925   -3.1529 H         1 UNK         0.2977 
    105 H105       26.5322    2.1173   -5.0817 H         1 UNK         0.3127 
    106 H106       25.7447    4.7669   -6.0825 H         1 UNK         0.0770 
    107 H107       24.0084    2.3378   -5.3938 H         1 UNK         0.0814 
    108 H108       23.4585    3.9749   -5.6982 H         1 UNK         0.0814 
    109 H109       24.4229    3.6345   -4.2706 H         1 UNK         0.0814 
    110 H110       25.9160    1.3857   -7.1902 H         1 UNK         0.2983 
    111 H111       24.9503    1.8639   -9.8751 H         1 UNK         0.0947 
    112 H112       25.9677   -0.3709  -10.3287 H         1 UNK         0.0806 
    113 H113       25.0096   -0.4140   -8.8569 H         1 UNK         0.0806 
    114 H114       26.7675   -0.3458   -8.7638 H         1 UNK         0.0806 
    115 H115       28.0405    2.1770   -8.2806 H         1 UNK         0.3000 
    116 H116       29.8838    3.2748   -8.6308 H         1 UNK         0.0850 
    117 H117       30.1705    4.9494  -10.4313 H         1 UNK         0.0810 
    118 H118       28.6085    5.1348   -9.6493 H         1 UNK         0.0810 
    119 H119       28.7180    4.3831  -11.2400 H         1 UNK         0.0810 
    120 H120       28.8565    1.8807  -11.7513 H         1 UNK         0.3040 
    121 H121       31.4805    1.2192  -12.6841 H         1 UNK         0.0766 
    122 H122       30.2269   -0.1073  -14.4009 H         1 UNK         0.0812 
    123 H123       29.5382    1.4957  -14.2058 H         1 UNK         0.0812 
    124 H124       28.7382    0.0979  -13.4869 H         1 UNK         0.0812 
    125 H125       29.3252   -0.4503  -10.5006 H         1 UNK         0.3205 
    126 H126       30.5410   -3.0723  -10.7191 H         1 UNK         0.0754 
    127 H127       28.6853   -1.8442   -8.6214 H         1 UNK         0.0769 
    128 H128       29.1677   -3.5357   -8.6589 H         1 UNK         0.0769 
    129 H129       28.2140   -2.8672   -9.9736 H         1 UNK         0.0769 
    130 H130       30.9046   -0.2909   -8.4538 H         1 UNK         0.2981 
    131 H131       33.0142   -1.6223   -6.9461 H         1 UNK         0.0541 
    132 H132       32.9296    0.9888   -9.5100 H         1 UNK         0.3459 
    133 H133       34.6519    0.8761   -9.7990 H         1 UNK         0.3459 
    134 H134       31.4548   -0.1101   -5.7935 H         1 UNK         0.0612 
    135 H135       31.9601    1.2296   -6.7854 H         1 UNK         0.0612 
    136 H136       34.3422   -0.6490   -3.2750 H         1 UNK         0.0624 
    137 H137       33.5355   -1.6192   -4.4825 H         1 UNK         0.0624 
@<TRIPOS>BOND
     1    1    2 1    
     2    1   72 1    
     3    1   73 1    
     4    1   74 1    
     5    2    3 2    
     6    2    4 am   BACKBONE|DICT|INTERRES
     7    4    5 1    
     8    4   75 1    
     9    5    6 1    
    10    5   35 1    
    11    5   76 1    
    12    6    7 1    
    13    6   77 1    
    14    6   78 1    
    15    7    8 1    
    16    8    9 1    
    17    8   79 1    
    18    8   80 1    
    19    9   10 ar   
    20    9   14 ar   
    21   10   11 ar   
    22   10   81 1    
    23   11   12 ar   
    24   11   71 1    
    25   12   13 ar   
    26   12   82 1    
    27   13   14 ar   
    28   13   15 1    
    29   14   83 1    
    30   15   16 1    
    31   15   84 1    
    32   15   85 1    
    33   16   17 1    
    34   17   18 1    
    35   17   86 1    
    36   17   87 1    
    37   18   19 1    
    38   18   37 1    
    39   18   88 1    
    40   19   20 am   BACKBONE|DICT|INTERRES
    41   19   89 1    
    42   20   21 2    
    43   20   22 1    
    44   22   23 1    
    45   22   24 1    
    46   22   90 1    
    47   23   91 1    
    48   23   92 1    
    49   23   93 1    
    50   24   25 am   BACKBONE|DICT|INTERRES
    51   24   94 1    
    52   25   26 2    
    53   25   27 1    
    54   27   28 1    
    55   27   29 1    
    56   27   95 1    
    57   28   96 1    
    58   28   97 1    
    59   28   98 1    
    60   29   30 am   BACKBONE|DICT|INTERRES
    61   29   99 1    
    62   30   31 2    
    63   30   32 1    
    64   32   33 1    
    65   32   34 1    
    66   32  100 1    
    67   33  101 1    
    68   33  102 1    
    69   33  103 1    
    70   34   35 am   BACKBONE|DICT|INTERRES
    71   34  104 1    
    72   35   36 2    
    73   37   38 2    
    74   37   39 am   BACKBONE|DICT|INTERRES
    75   39   40 1    
    76   39  105 1    
    77   40   41 1    
    78   40   42 1    
    79   40  106 1    
    80   41  107 1    
    81   41  108 1    
    82   41  109 1    
    83   42   43 2    
    84   42   44 am   BACKBONE|DICT|INTERRES
    85   44   45 1    
    86   44  110 1    
    87   45   46 1    
    88   45   47 1    
    89   45  111 1    
    90   46  112 1    
    91   46  113 1    
    92   46  114 1    
    93   47   48 2    
    94   47   49 am   BACKBONE|DICT|INTERRES
    95   49   50 1    
    96   49  115 1    
    97   50   51 1    
    98   50   52 1    
    99   50  116 1    
   100   51  117 1    
   101   51  118 1    
   102   51  119 1    
   103   52   53 2    
   104   52   54 am   BACKBONE|DICT|INTERRES
   105   54   55 1    
   106   54  120 1    
   107   55   56 1    
   108   55   57 1    
   109   55  121 1    
   110   56  122 1    
   111   56  123 1    
   112   56  124 1    
   113   57   58 2    
   114   57   59 am   BACKBONE|DICT|INTERRES
   115   59   60 1    
   116   59  125 1    
   117   60   61 1    
   118   60   62 1    
   119   60  126 1    
   120   61  127 1    
   121   61  128 1    
   122   61  129 1    
   123   62   63 2    
   124   62   64 am   BACKBONE|DICT|INTERRES
   125   64   65 1    
   126   64  130 1    
   127   65   66 1    
   128   65   69 1    
   129   65  131 1    
   130   66   67 am   BACKBONE|DICT|INTERRES
   131   66   68 2    
   132   67  132 1    
   133   67  133 1    
   134   69   70 1    
   135   69  134 1    
   136   69  135 1    
   137   70   71 1    
   138   71  136 1    
   139   71  137 1    
@<TRIPOS>SUBSTRUCTURE
     1 UNK         1 GROUP             0       ****    0 ROOT    
