@<TRIPOS>MOLECULE
3R137
137   139    1
SMALL
USER_CHARGES


@<TRIPOS>ATOM
      1 CA         26.8148   -3.3930    3.1000 C.3       0 UNK        -0.2020 
      2 C          26.5353   -2.1449    2.2765 C.2       0 UNK         0.4855 
      3 O          25.4123   -1.6407    2.2910 O.2       0 UNK        -0.5197 
      4 N          27.5497   -1.6418    1.5613 N.am      1 UNK        -0.4892 
      5 CA         27.4694   -0.4720    0.6755 C.3       1 UNK         0.0835 
      6 C6         28.8738    0.0784    0.3162 C.3       12 UNK        -0.0855 
      7 S7         30.0458   -1.2048   -0.2520 S.3       12 UNK        -0.2931 
      8 C8         30.3598   -0.6651   -1.9555 C.3       12 UNK         0.0378 
      9 C9         30.9557   -1.7951   -2.7761 C.ar      12 UNK        -0.0802 
     10 C10        32.3357   -1.8966   -2.9723 C.ar      12 UNK        -0.0944 
     11 C11        32.8637   -2.9185   -3.7695 C.ar      12 UNK        -0.0787 
     12 C12        31.9997   -3.8342   -4.3811 C.ar      12 UNK        -0.0862 
     13 C13        30.6175   -3.7313   -4.1994 C.ar      12 UNK        -0.0733 
     14 C14        30.1074   -2.7300   -3.3685 C.ar      12 UNK        -0.0832 
     15 C15        29.6634   -4.6653   -4.9337 C.3       12 UNK         0.0240 
     16 S16        29.3727   -4.1434   -6.6601 S.3       12 UNK        -0.2522 
     17 C17        29.0579   -2.3540   -6.4896 C.3       12 UNK        -0.0967 
     18 CA         27.9519   -1.8196   -7.4218 C.3       5 UNK         0.0660 
     19 N          26.6383   -2.3593   -7.0846 N.am      5 UNK        -0.4015 
     20 C          25.6887   -2.6616   -7.9777 C.2       4 UNK         0.4946 
     21 O          25.8591   -2.6664   -9.1976 O.2       4 UNK        -0.5353 
     22 CA         24.2926   -2.9874   -7.4140 C.3       4 UNK         0.0277 
     23 CB         24.1446   -4.5009   -7.1883 C.3       4 UNK        -0.1981 
     24 N          23.9775   -2.2778   -6.1686 N.am      4 UNK        -0.4209 
     25 C          23.9671   -0.9442   -6.0203 C.2       3 UNK         0.4942 
     26 O          24.1957   -0.1492   -6.9300 O.2       3 UNK        -0.5208 
     27 CA         23.7053   -0.3980   -4.6098 C.3       3 UNK         0.0250 
     28 CB         22.2055   -0.1246   -4.4155 C.3       3 UNK        -0.1990 
     29 N          24.1895   -1.2545   -3.5221 N.am      3 UNK        -0.4232 
     30 C          25.4518   -1.6674   -3.3291 C.2       2 UNK         0.4993 
     31 O          26.3885   -1.4446   -4.1041 O.2       2 UNK        -0.5286 
     32 CA         25.6806   -2.5244   -2.0706 C.3       2 UNK         0.0209 
     33 CB         26.1411   -3.9390   -2.4562 C.3       2 UNK        -0.1931 
     34 N          26.6176   -1.9569   -1.0935 N.am      2 UNK        -0.4546 
     35 C          26.5794   -0.7226   -0.5640 C.2       1 UNK         0.5154 
     36 O          25.8354    0.1777   -0.9557 O.2       1 UNK        -0.5181 
     37 C          27.9020   -0.2851   -7.3324 C.2       5 UNK         0.5014 
     38 O          28.2525    0.3881   -8.3004 O.2       5 UNK        -0.5248 
     39 N          27.4818    0.2444   -6.1699 N.am      6 UNK        -0.4434 
     40 CA         27.6101    1.6578   -5.7989 C.3       6 UNK         0.0363 
     41 CB         27.1755    1.8595   -4.3392 C.3       6 UNK        -0.1936 
     42 C          26.9033    2.6556   -6.7330 C.2       6 UNK         0.5081 
     43 O          27.3837    3.7817   -6.8583 O.2       6 UNK        -0.5248 
     44 N          25.8346    2.2347   -7.4263 N.am      7 UNK        -0.4718 
     45 CA         25.1740    3.0228   -8.4758 C.3       7 UNK         0.0273 
     46 CB         23.8719    2.3263   -8.9005 C.3       7 UNK        -0.1935 
     47 C          26.0634    3.2920   -9.7073 C.2       7 UNK         0.5018 
     48 O          25.8319    4.2793  -10.4060 O.2       7 UNK        -0.5186 
     49 N          27.0664    2.4340   -9.9395 N.am      8 UNK        -0.4240 
     50 CA         28.0939    2.5842  -10.9719 C.3       8 UNK         0.0235 
     51 CB         28.2292    1.2486  -11.7253 C.3       8 UNK        -0.2000 
     52 C          29.4479    3.0141  -10.3735 C.2       8 UNK         0.4941 
     53 O          30.4380    3.0473  -11.1064 O.2       8 UNK        -0.5273 
     54 N          29.4873    3.3103   -9.0641 N.am      9 UNK        -0.4262 
     55 CA         30.6309    3.6896   -8.2214 C.3       9 UNK         0.0264 
     56 CB         31.2569    5.0184   -8.6874 C.3       9 UNK        -0.1955 
     57 C          31.7072    2.6002   -8.0473 C.2       9 UNK         0.5031 
     58 O          32.1568    2.3786   -6.9219 O.2       9 UNK        -0.5390 
     59 N          32.1186    1.9622   -9.1476 N.am      10 UNK        -0.4204 
     60 CA         33.1195    0.8971   -9.1945 C.3       10 UNK         0.0237 
     61 CB         33.5633    0.7062  -10.6547 C.3       10 UNK        -0.1985 
     62 C          32.5958   -0.4285   -8.6163 C.2       10 UNK         0.4970 
     63 O          31.3915   -0.6848   -8.6444 O.2       10 UNK        -0.4914 
     64 N          33.5304   -1.2685   -8.1575 N.am      11 UNK        -0.4285 
     65 CA         33.2779   -2.6164   -7.6183 C.3       11 UNK         0.1007 
     66 C          32.8436   -3.6806   -8.6726 C.2       11 UNK         0.5703 
     67 N          32.8252   -3.3794   -9.9659 N.am      11 UNK        -0.7361 
     68 O          32.5272   -4.8105   -8.3095 O.2       11 UNK        -0.4986 
     69 C69        34.4929   -3.1281   -6.7977 C.3       12 UNK        -0.0947 
     70 S70        34.9310   -2.0424   -5.3973 S.3       12 UNK        -0.2240 
     71 C71        34.3681   -3.0233   -3.9701 C.3       12 UNK         0.0194 
     72 H72        26.1635   -4.2063    2.7810 H         1 UNK         0.0906 
     73 H73        26.6238   -3.1971    4.1547 H         1 UNK         0.0906 
     74 H74        27.8475   -3.7263    2.9989 H         1 UNK         0.0906 
     75 H75        28.4552   -2.0918    1.5869 H         1 UNK         0.3140 
     76 H76        26.9619    0.3126    1.2422 H         1 UNK         0.1085 
     77 H77        29.3108    0.5382    1.2041 H         1 UNK         0.0836 
     78 H78        28.8007    0.8857   -0.4155 H         1 UNK         0.0836 
     79 H79        29.4267   -0.3366   -2.4170 H         1 UNK         0.0731 
     80 H80        31.0246    0.2002   -1.9480 H         1 UNK         0.0731 
     81 H81        32.9982   -1.1765   -2.5117 H         1 UNK         0.1312 
     82 H82        32.3972   -4.6110   -5.0197 H         1 UNK         0.1406 
     83 H83        29.0401   -2.6417   -3.2179 H         1 UNK         0.1631 
     84 H84        28.7056   -4.7206   -4.4168 H         1 UNK         0.0717 
     85 H85        30.0667   -5.6789   -4.9335 H         1 UNK         0.0717 
     86 H86        28.7746   -2.1298   -5.4644 H         1 UNK         0.0934 
     87 H87        30.0038   -1.8383   -6.6666 H         1 UNK         0.0934 
     88 H88        28.2175   -2.0847   -8.4478 H         1 UNK         0.0739 
     89 H89        26.3952   -2.3604   -6.1021 H         1 UNK         0.3093 
     90 H90        23.5597   -2.6760   -8.1614 H         1 UNK         0.0818 
     91 H91        24.3510   -5.0534   -8.1062 H         1 UNK         0.0819 
     92 H92        24.8351   -4.8660   -6.4268 H         1 UNK         0.0819 
     93 H93        23.1321   -4.7603   -6.8783 H         1 UNK         0.0819 
     94 H94        23.7694   -2.8462   -5.3608 H         1 UNK         0.3041 
     95 H95        24.2279    0.5546   -4.5326 H         1 UNK         0.0784 
     96 H96        21.8233    0.5300   -5.2005 H         1 UNK         0.0793 
     97 H97        21.6187   -1.0436   -4.4435 H         1 UNK         0.0793 
     98 H98        22.0117    0.3703   -3.4636 H         1 UNK         0.0793 
     99 H99        23.5008   -1.4989   -2.8250 H         1 UNK         0.3024 
    100 H100       24.7263   -2.6245   -1.5490 H         1 UNK         0.1171 
    101 H101       25.4586   -4.3935   -3.1758 H         1 UNK         0.0786 
    102 H102       27.1307   -3.9292   -2.9089 H         1 UNK         0.0786 
    103 H103       26.1770   -4.5968   -1.5876 H         1 UNK         0.0786 
    104 H104       27.2830   -2.6003   -0.6907 H         1 UNK         0.2977 
    105 H105       27.1588   -0.3780   -5.4317 H         1 UNK         0.3127 
    106 H106       28.6762    1.8888   -5.8546 H         1 UNK         0.0770 
    107 H107       26.1139    1.6675   -4.2002 H         1 UNK         0.0814 
    108 H108       27.3627    2.8845   -4.0164 H         1 UNK         0.0814 
    109 H109       27.7239    1.2028   -3.6635 H         1 UNK         0.0814 
    110 H110       25.4690    1.2997   -7.2617 H         1 UNK         0.2983 
    111 H111       24.9160    3.9941   -8.0480 H         1 UNK         0.0947 
    112 H112       24.0627    1.3345   -9.3128 H         1 UNK         0.0806 
    113 H113       23.3487    2.9035   -9.6641 H         1 UNK         0.0806 
    114 H114       23.1901    2.2128   -8.0575 H         1 UNK         0.0806 
    115 H115       27.2127    1.6597   -9.2946 H         1 UNK         0.3000 
    116 H116       27.8025    3.3536  -11.6897 H         1 UNK         0.0850 
    117 H117       28.9435    1.3296  -12.5457 H         1 UNK         0.0810 
    118 H118       27.2773    0.9384  -12.1562 H         1 UNK         0.0810 
    119 H119       28.5762    0.4499  -11.0681 H         1 UNK         0.0810 
    120 H120       28.6114    3.2494   -8.5591 H         1 UNK         0.3040 
    121 H121       30.2086    3.8629   -7.2302 H         1 UNK         0.0766 
    122 H122       31.7060    4.9354   -9.6775 H         1 UNK         0.0812 
    123 H123       32.0430    5.3383   -8.0021 H         1 UNK         0.0812 
    124 H124       30.5137    5.8149   -8.7220 H         1 UNK         0.0812 
    125 H125       31.6557    2.2100  -10.0199 H         1 UNK         0.3205 
    126 H126       33.9807    1.2173   -8.6040 H         1 UNK         0.0754 
    127 H127       34.3428   -0.0524  -10.7362 H         1 UNK         0.0769 
    128 H128       33.9694    1.6295  -11.0687 H         1 UNK         0.0769 
    129 H129       32.7328    0.3931  -11.2893 H         1 UNK         0.0769 
    130 H130       34.4987   -0.9859   -8.1830 H         1 UNK         0.2981 
    131 H131       32.4327   -2.5291   -6.9335 H         1 UNK         0.0541 
    132 H132       32.5434   -4.0825  -10.6304 H         1 UNK         0.3459 
    133 H133       33.0724   -2.4560  -10.2802 H         1 UNK         0.3459 
    134 H134       35.3701   -3.2118   -7.4415 H         1 UNK         0.0612 
    135 H135       34.3103   -4.1344   -6.4181 H         1 UNK         0.0612 
    136 H136       34.6700   -4.0651   -4.0875 H         1 UNK         0.0624 
    137 H137       34.8817   -2.6614   -3.0782 H         1 UNK         0.0624 
@<TRIPOS>BOND
     1    1    2 1    
     2    1   72 1    
     3    1   73 1    
     4    1   74 1    
     5    2    3 2    
     6    2    4 am   BACKBONE|DICT|INTERRES
     7    4    5 1    
     8    4   75 1    
     9    5    6 1    
    10    5   35 1    
    11    5   76 1    
    12    6    7 1    
    13    6   77 1    
    14    6   78 1    
    15    7    8 1    
    16    8    9 1    
    17    8   79 1    
    18    8   80 1    
    19    9   10 ar   
    20    9   14 ar   
    21   10   11 ar   
    22   10   81 1    
    23   11   12 ar   
    24   11   71 1    
    25   12   13 ar   
    26   12   82 1    
    27   13   14 ar   
    28   13   15 1    
    29   14   83 1    
    30   15   16 1    
    31   15   84 1    
    32   15   85 1    
    33   16   17 1    
    34   17   18 1    
    35   17   86 1    
    36   17   87 1    
    37   18   19 1    
    38   18   37 1    
    39   18   88 1    
    40   19   20 am   BACKBONE|DICT|INTERRES
    41   19   89 1    
    42   20   21 2    
    43   20   22 1    
    44   22   23 1    
    45   22   24 1    
    46   22   90 1    
    47   23   91 1    
    48   23   92 1    
    49   23   93 1    
    50   24   25 am   BACKBONE|DICT|INTERRES
    51   24   94 1    
    52   25   26 2    
    53   25   27 1    
    54   27   28 1    
    55   27   29 1    
    56   27   95 1    
    57   28   96 1    
    58   28   97 1    
    59   28   98 1    
    60   29   30 am   BACKBONE|DICT|INTERRES
    61   29   99 1    
    62   30   31 2    
    63   30   32 1    
    64   32   33 1    
    65   32   34 1    
    66   32  100 1    
    67   33  101 1    
    68   33  102 1    
    69   33  103 1    
    70   34   35 am   BACKBONE|DICT|INTERRES
    71   34  104 1    
    72   35   36 2    
    73   37   38 2    
    74   37   39 am   BACKBONE|DICT|INTERRES
    75   39   40 1    
    76   39  105 1    
    77   40   41 1    
    78   40   42 1    
    79   40  106 1    
    80   41  107 1    
    81   41  108 1    
    82   41  109 1    
    83   42   43 2    
    84   42   44 am   BACKBONE|DICT|INTERRES
    85   44   45 1    
    86   44  110 1    
    87   45   46 1    
    88   45   47 1    
    89   45  111 1    
    90   46  112 1    
    91   46  113 1    
    92   46  114 1    
    93   47   48 2    
    94   47   49 am   BACKBONE|DICT|INTERRES
    95   49   50 1    
    96   49  115 1    
    97   50   51 1    
    98   50   52 1    
    99   50  116 1    
   100   51  117 1    
   101   51  118 1    
   102   51  119 1    
   103   52   53 2    
   104   52   54 am   BACKBONE|DICT|INTERRES
   105   54   55 1    
   106   54  120 1    
   107   55   56 1    
   108   55   57 1    
   109   55  121 1    
   110   56  122 1    
   111   56  123 1    
   112   56  124 1    
   113   57   58 2    
   114   57   59 am   BACKBONE|DICT|INTERRES
   115   59   60 1    
   116   59  125 1    
   117   60   61 1    
   118   60   62 1    
   119   60  126 1    
   120   61  127 1    
   121   61  128 1    
   122   61  129 1    
   123   62   63 2    
   124   62   64 am   BACKBONE|DICT|INTERRES
   125   64   65 1    
   126   64  130 1    
   127   65   66 1    
   128   65   69 1    
   129   65  131 1    
   130   66   67 am   BACKBONE|DICT|INTERRES
   131   66   68 2    
   132   67  132 1    
   133   67  133 1    
   134   69   70 1    
   135   69  134 1    
   136   69  135 1    
   137   70   71 1    
   138   71  136 1    
   139   71  137 1    
@<TRIPOS>SUBSTRUCTURE
     1 UNK         1 GROUP             0       ****    0 ROOT    
