@<TRIPOS>MOLECULE
3R137
137   139    1
SMALL
USER_CHARGES


@<TRIPOS>ATOM
      1 CA         23.4238   -6.2266   -3.6797 C.3       0 UNK        -0.2020 
      2 C          24.6622   -5.3506   -3.5713 C.2       0 UNK         0.4855 
      3 O          24.9319   -4.5668   -4.4819 O.2       0 UNK        -0.5197 
      4 N          25.4025   -5.4661   -2.4572 N.am      1 UNK        -0.4892 
      5 CA         26.6434   -4.7362   -2.1542 C.3       1 UNK         0.0835 
      6 C6         27.8339   -5.2478   -3.0105 C.3       12 UNK        -0.0855 
      7 S7         29.4709   -4.7639   -2.3529 S.3       12 UNK        -0.2931 
      8 C8         30.1836   -3.8609   -3.7739 C.3       12 UNK         0.0378 
      9 C9         30.9090   -2.5760   -3.3918 C.ar      12 UNK        -0.0802 
     10 C10        32.0916   -2.2253   -4.0495 C.ar      12 UNK        -0.0944 
     11 C11        32.7204   -1.0049   -3.7834 C.ar      12 UNK        -0.0787 
     12 C12        32.1652   -0.1329   -2.8424 C.ar      12 UNK        -0.0862 
     13 C13        30.9837   -0.4718   -2.1768 C.ar      12 UNK        -0.0733 
     14 C14        30.3654   -1.6945   -2.4524 C.ar      12 UNK        -0.0832 
     15 C15        30.3678    0.4873   -1.1691 C.3       12 UNK         0.0240 
     16 S16        29.3921    1.7950   -1.9803 S.3       12 UNK        -0.2522 
     17 C17        27.9902    0.8584   -2.6794 C.3       12 UNK        -0.0967 
     18 CA         27.9541    0.9176   -4.2301 C.3       5 UNK         0.0660 
     19 N          27.3471   -0.2789   -4.8264 N.am      5 UNK        -0.4015 
     20 C          27.2557   -0.5246   -6.1436 C.2       4 UNK         0.4946 
     21 O          27.7573    0.1864   -7.0138 O.2       4 UNK        -0.5353 
     22 CA         26.4122   -1.7346   -6.5802 C.3       4 UNK         0.0277 
     23 CB         27.2469   -3.0204   -6.5865 C.3       4 UNK        -0.1981 
     24 N          25.2182   -1.9208   -5.7531 N.am      4 UNK        -0.4209 
     25 C          24.2033   -1.0460   -5.6960 C.2       3 UNK         0.4942 
     26 O          24.1314   -0.0326   -6.3909 O.2       3 UNK        -0.5208 
     27 CA         23.1195   -1.3111   -4.6404 C.3       3 UNK         0.0250 
     28 CB         22.1531   -2.4156   -5.0975 C.3       3 UNK        -0.1990 
     29 N          23.6982   -1.6501   -3.3378 N.am      3 UNK        -0.4232 
     30 C          24.4109   -0.7971   -2.5873 C.2       2 UNK         0.4993 
     31 O          24.6174    0.3762   -2.8956 O.2       2 UNK        -0.5286 
     32 CA         25.0282   -1.3463   -1.2905 C.3       2 UNK         0.0209 
     33 CB         24.0491   -1.1810   -0.1177 C.3       2 UNK        -0.1931 
     34 N          25.4474   -2.7479   -1.3852 N.am      2 UNK        -0.4546 
     35 C          26.4115   -3.2069   -2.1974 C.2       1 UNK         0.5154 
     36 O          27.0357   -2.4871   -2.9794 O.2       1 UNK        -0.5181 
     37 C          27.2649    2.2100   -4.7160 C.2       5 UNK         0.5014 
     38 O          27.9426    3.1107   -5.2120 O.2       5 UNK        -0.5248 
     39 N          25.9290    2.2613   -4.5948 N.am      6 UNK        -0.4434 
     40 CA         25.0860    3.3801   -5.0272 C.3       6 UNK         0.0363 
     41 CB         23.6399    3.1413   -4.5649 C.3       6 UNK        -0.1936 
     42 C          25.1355    3.6316   -6.5439 C.2       6 UNK         0.5081 
     43 O          25.1474    4.7886   -6.9648 O.2       6 UNK        -0.5248 
     44 N          25.1905    2.5518   -7.3348 N.am      7 UNK        -0.4718 
     45 CA         25.3621    2.5938   -8.7899 C.3       7 UNK         0.0273 
     46 CB         24.9705    1.2264   -9.3743 C.3       7 UNK        -0.1935 
     47 C          26.7886    2.9698   -9.2368 C.2       7 UNK         0.5018 
     48 O          26.9713    3.3031  -10.4085 O.2       7 UNK        -0.5186 
     49 N          27.7638    2.8822   -8.3183 N.am      8 UNK        -0.4240 
     50 CA         29.2110    3.0131   -8.5254 C.3       8 UNK         0.0235 
     51 CB         29.5876    4.4580   -8.9161 C.3       8 UNK        -0.2000 
     52 C          29.7570    1.9522   -9.5025 C.2       8 UNK         0.4941 
     53 O          30.5918    2.2643  -10.3549 O.2       8 UNK        -0.5273 
     54 N          29.2523    0.7192   -9.3740 N.am      9 UNK        -0.4262 
     55 CA         29.6314   -0.4288  -10.1927 C.3       9 UNK         0.0264 
     56 CB         28.4380   -1.3954  -10.2698 C.3       9 UNK        -0.1955 
     57 C          30.8601   -1.1315   -9.5979 C.2       9 UNK         0.5031 
     58 O          30.9938   -1.1907   -8.3740 O.2       9 UNK        -0.5390 
     59 N          31.6995   -1.6923  -10.4802 N.am      10 UNK        -0.4204 
     60 CA         32.9447   -2.4096  -10.1805 C.3       10 UNK         0.0237 
     61 CB         32.6549   -3.7284   -9.4228 C.3       10 UNK        -0.1985 
     62 C          33.9875   -1.4926   -9.5061 C.2       10 UNK         0.4970 
     63 O          34.2605   -0.4149  -10.0381 O.2       10 UNK        -0.4914 
     64 N          34.5688   -1.9462   -8.3875 N.am      11 UNK        -0.4285 
     65 CA         35.6106   -1.2667   -7.5926 C.3       11 UNK         0.1007 
     66 C          37.0089   -1.1893   -8.2790 C.2       11 UNK         0.5703 
     67 N          37.2678   -1.9402   -9.3434 N.am      11 UNK        -0.7361 
     68 O          37.8898   -0.4640   -7.8221 O.2       11 UNK        -0.4986 
     69 C69        35.1663    0.1049   -6.9969 C.3       12 UNK        -0.0947 
     70 S70        33.5421    0.0645   -6.1703 S.3       12 UNK        -0.2240 
     71 C71        33.9779   -0.6199   -4.5448 C.3       12 UNK         0.0194 
     72 H72        23.4824   -6.8456   -4.5745 H         1 UNK         0.0906 
     73 H73        23.3111   -6.8851   -2.8188 H         1 UNK         0.0906 
     74 H74        22.5308   -5.6067   -3.7530 H         1 UNK         0.0906 
     75 H75        25.1078   -6.1216   -1.7455 H         1 UNK         0.3140 
     76 H76        26.8776   -4.9686   -1.1136 H         1 UNK         0.1085 
     77 H77        27.7158   -4.9530   -4.0516 H         1 UNK         0.0836 
     78 H78        27.8208   -6.3387   -3.0249 H         1 UNK         0.0836 
     79 H79        29.4047   -3.5803   -4.4790 H         1 UNK         0.0731 
     80 H80        30.8515   -4.5380   -4.3085 H         1 UNK         0.0731 
     81 H81        32.5088   -2.8857   -4.7977 H         1 UNK         0.1312 
     82 H82        32.6395    0.8185   -2.6429 H         1 UNK         0.1406 
     83 H83        29.4436   -1.9549   -1.9519 H         1 UNK         0.1631 
     84 H84        31.1589    0.9537   -0.5801 H         1 UNK         0.0717 
     85 H85        29.7375   -0.0496   -0.4582 H         1 UNK         0.0717 
     86 H86        28.0594   -0.1729   -2.3416 H         1 UNK         0.0934 
     87 H87        27.0679    1.2357   -2.2344 H         1 UNK         0.0934 
     88 H88        28.9826    0.9348   -4.5984 H         1 UNK         0.0739 
     89 H89        26.9812   -0.9747   -4.1823 H         1 UNK         0.3093 
     90 H90        26.0811   -1.5461   -7.6033 H         1 UNK         0.0818 
     91 H91        28.1923   -2.8826   -7.1132 H         1 UNK         0.0819 
     92 H92        27.4765   -3.3339   -5.5721 H         1 UNK         0.0819 
     93 H93        26.7129   -3.8367   -7.0731 H         1 UNK         0.0819 
     94 H94        25.1873   -2.7533   -5.1686 H         1 UNK         0.3041 
     95 H95        22.5449   -0.3901   -4.5193 H         1 UNK         0.0784 
     96 H96        21.6811   -2.1483   -6.0440 H         1 UNK         0.0793 
     97 H97        22.6609   -3.3683   -5.2478 H         1 UNK         0.0793 
     98 H98        21.3550   -2.5706   -4.3714 H         1 UNK         0.0793 
     99 H99        23.6089   -2.6063   -3.0280 H         1 UNK         0.3024 
    100 H100       25.9168   -0.7490   -1.0769 H         1 UNK         0.1171 
    101 H101       24.5070   -1.4759    0.8268 H         1 UNK         0.0786 
    102 H102       23.7387   -0.1401   -0.0132 H         1 UNK         0.0786 
    103 H103       23.1465   -1.7777   -0.2554 H         1 UNK         0.0786 
    104 H104       24.9614   -3.4087   -0.7957 H         1 UNK         0.2977 
    105 H105       25.4501    1.4882   -4.1348 H         1 UNK         0.3127 
    106 H106       25.4579    4.2799   -4.5330 H         1 UNK         0.0770 
    107 H107       23.2229    2.2324   -5.0004 H         1 UNK         0.0814 
    108 H108       22.9939    3.9706   -4.8559 H         1 UNK         0.0814 
    109 H109       23.5808    3.0483   -3.4803 H         1 UNK         0.0814 
    110 H110       25.0945    1.6322   -6.9117 H         1 UNK         0.2983 
    111 H111       24.6840    3.3482   -9.1948 H         1 UNK         0.0947 
    112 H112       25.0373    1.2309  -10.4630 H         1 UNK         0.0806 
    113 H113       23.9461    0.9605   -9.1129 H         1 UNK         0.0806 
    114 H114       25.6254    0.4339   -9.0108 H         1 UNK         0.0806 
    115 H115       27.4955    2.5789   -7.3893 H         1 UNK         0.3000 
    116 H116       29.6729    2.8002   -7.5599 H         1 UNK         0.0850 
    117 H117       30.6705    4.5840   -8.9442 H         1 UNK         0.0810 
    118 H118       29.1964    5.1767   -8.1960 H         1 UNK         0.0810 
    119 H119       29.2042    4.7257   -9.9011 H         1 UNK         0.0810 
    120 H120       28.6481    0.5271   -8.5752 H         1 UNK         0.3040 
    121 H121       29.8659   -0.0871  -11.2033 H         1 UNK         0.0766 
    122 H122       27.5636   -0.9111  -10.7051 H         1 UNK         0.0812 
    123 H123       28.1577   -1.7656   -9.2836 H         1 UNK         0.0812 
    124 H124       28.6731   -2.2615  -10.8896 H         1 UNK         0.0812 
    125 H125       31.5051   -1.5642  -11.4638 H         1 UNK         0.3205 
    126 H126       33.3739   -2.6813  -11.1460 H         1 UNK         0.0754 
    127 H127       33.5547   -4.3371   -9.3250 H         1 UNK         0.0769 
    128 H128       31.9243   -4.3329   -9.9605 H         1 UNK         0.0769 
    129 H129       32.2587   -3.5527   -8.4217 H         1 UNK         0.0769 
    130 H130       34.2763   -2.8457   -8.0364 H         1 UNK         0.2981 
    131 H131       35.7780   -1.9321   -6.7458 H         1 UNK         0.0541 
    132 H132       36.5638   -2.5518   -9.7230 H         1 UNK         0.3459 
    133 H133       38.1790   -1.8907   -9.7712 H         1 UNK         0.3459 
    134 H134       35.1162    0.8586   -7.7841 H         1 UNK         0.0612 
    135 H135       35.9033    0.4692   -6.2791 H         1 UNK         0.0612 
    136 H136       34.6125   -1.4980   -4.6699 H         1 UNK         0.0624 
    137 H137       34.5621    0.1128   -3.9859 H         1 UNK         0.0624 
@<TRIPOS>BOND
     1    1    2 1    
     2    1   72 1    
     3    1   73 1    
     4    1   74 1    
     5    2    3 2    
     6    2    4 am   BACKBONE|DICT|INTERRES
     7    4    5 1    
     8    4   75 1    
     9    5    6 1    
    10    5   35 1    
    11    5   76 1    
    12    6    7 1    
    13    6   77 1    
    14    6   78 1    
    15    7    8 1    
    16    8    9 1    
    17    8   79 1    
    18    8   80 1    
    19    9   10 ar   
    20    9   14 ar   
    21   10   11 ar   
    22   10   81 1    
    23   11   12 ar   
    24   11   71 1    
    25   12   13 ar   
    26   12   82 1    
    27   13   14 ar   
    28   13   15 1    
    29   14   83 1    
    30   15   16 1    
    31   15   84 1    
    32   15   85 1    
    33   16   17 1    
    34   17   18 1    
    35   17   86 1    
    36   17   87 1    
    37   18   19 1    
    38   18   37 1    
    39   18   88 1    
    40   19   20 am   BACKBONE|DICT|INTERRES
    41   19   89 1    
    42   20   21 2    
    43   20   22 1    
    44   22   23 1    
    45   22   24 1    
    46   22   90 1    
    47   23   91 1    
    48   23   92 1    
    49   23   93 1    
    50   24   25 am   BACKBONE|DICT|INTERRES
    51   24   94 1    
    52   25   26 2    
    53   25   27 1    
    54   27   28 1    
    55   27   29 1    
    56   27   95 1    
    57   28   96 1    
    58   28   97 1    
    59   28   98 1    
    60   29   30 am   BACKBONE|DICT|INTERRES
    61   29   99 1    
    62   30   31 2    
    63   30   32 1    
    64   32   33 1    
    65   32   34 1    
    66   32  100 1    
    67   33  101 1    
    68   33  102 1    
    69   33  103 1    
    70   34   35 am   BACKBONE|DICT|INTERRES
    71   34  104 1    
    72   35   36 2    
    73   37   38 2    
    74   37   39 am   BACKBONE|DICT|INTERRES
    75   39   40 1    
    76   39  105 1    
    77   40   41 1    
    78   40   42 1    
    79   40  106 1    
    80   41  107 1    
    81   41  108 1    
    82   41  109 1    
    83   42   43 2    
    84   42   44 am   BACKBONE|DICT|INTERRES
    85   44   45 1    
    86   44  110 1    
    87   45   46 1    
    88   45   47 1    
    89   45  111 1    
    90   46  112 1    
    91   46  113 1    
    92   46  114 1    
    93   47   48 2    
    94   47   49 am   BACKBONE|DICT|INTERRES
    95   49   50 1    
    96   49  115 1    
    97   50   51 1    
    98   50   52 1    
    99   50  116 1    
   100   51  117 1    
   101   51  118 1    
   102   51  119 1    
   103   52   53 2    
   104   52   54 am   BACKBONE|DICT|INTERRES
   105   54   55 1    
   106   54  120 1    
   107   55   56 1    
   108   55   57 1    
   109   55  121 1    
   110   56  122 1    
   111   56  123 1    
   112   56  124 1    
   113   57   58 2    
   114   57   59 am   BACKBONE|DICT|INTERRES
   115   59   60 1    
   116   59  125 1    
   117   60   61 1    
   118   60   62 1    
   119   60  126 1    
   120   61  127 1    
   121   61  128 1    
   122   61  129 1    
   123   62   63 2    
   124   62   64 am   BACKBONE|DICT|INTERRES
   125   64   65 1    
   126   64  130 1    
   127   65   66 1    
   128   65   69 1    
   129   65  131 1    
   130   66   67 am   BACKBONE|DICT|INTERRES
   131   66   68 2    
   132   67  132 1    
   133   67  133 1    
   134   69   70 1    
   135   69  134 1    
   136   69  135 1    
   137   70   71 1    
   138   71  136 1    
   139   71  137 1    
@<TRIPOS>SUBSTRUCTURE
     1 UNK         1 GROUP             0       ****    0 ROOT    
