@<TRIPOS>MOLECULE
3R137
137   139    1
SMALL
USER_CHARGES


@<TRIPOS>ATOM
      1 CA         30.6353   -5.4109   -4.7709 C.3       0 UNK        -0.2020 
      2 C          29.5629   -5.4081   -3.6912 C.2       0 UNK         0.4855 
      3 O          28.9293   -6.4390   -3.4613 O.2       0 UNK        -0.5197 
      4 N          29.3715   -4.2642   -3.0216 N.am      1 UNK        -0.4892 
      5 CA         28.3974   -4.0747   -1.9389 C.3       1 UNK         0.0835 
      6 C6         28.9548   -3.1801   -0.7963 C.3       12 UNK        -0.0855 
      7 S7         30.5837   -3.7504   -0.1871 S.3       12 UNK        -0.2931 
      8 C8         31.3996   -2.1981    0.3167 C.3       12 UNK         0.0378 
      9 C9         31.4112   -1.1521   -0.7902 C.ar      12 UNK        -0.0802 
     10 C10        32.1165   -1.3784   -1.9743 C.ar      12 UNK        -0.0944 
     11 C11        32.0930   -0.4342   -3.0046 C.ar      12 UNK        -0.0787 
     12 C12        31.3728    0.7533   -2.8386 C.ar      12 UNK        -0.0862 
     13 C13        30.6587    0.9899   -1.6568 C.ar      12 UNK        -0.0733 
     14 C14        30.6912    0.0354   -0.6363 C.ar      12 UNK        -0.0832 
     15 C15        29.8492    2.2670   -1.4468 C.3       12 UNK         0.0240 
     16 S16        28.8945    2.8134   -2.9013 S.3       12 UNK        -0.2522 
     17 C17        27.8778    1.3525   -3.3209 C.3       12 UNK        -0.0967 
     18 CA         27.8066    1.1744   -4.8574 C.3       5 UNK         0.0660 
     19 N          27.5475   -0.2050   -5.2715 N.am      5 UNK        -0.4015 
     20 C          27.7599   -0.6610   -6.5160 C.2       4 UNK         0.4946 
     21 O          28.2526    0.0171   -7.4170 O.2       4 UNK        -0.5353 
     22 CA         27.3070   -2.0951   -6.8285 C.3       4 UNK         0.0277 
     23 CB         28.4064   -3.0971   -6.4558 C.3       4 UNK        -0.1981 
     24 N          26.0558   -2.4429   -6.1508 N.am      4 UNK        -0.4209 
     25 C          24.8749   -1.8807   -6.4531 C.2       3 UNK         0.4942 
     26 O          24.7222   -1.0746   -7.3693 O.2       3 UNK        -0.5208 
     27 CA         23.6651   -2.2291   -5.5698 C.3       3 UNK         0.0250 
     28 CB         22.8814   -3.4034   -6.1765 C.3       3 UNK        -0.1990 
     29 N          23.9992   -2.5374   -4.1786 N.am      3 UNK        -0.4232 
     30 C          24.6704   -1.7482   -3.3275 C.2       2 UNK         0.4993 
     31 O          25.1131   -0.6351   -3.6217 O.2       2 UNK        -0.5286 
     32 CA         24.9239   -2.3173   -1.9181 C.3       2 UNK         0.0209 
     33 CB         23.9305   -3.4305   -1.5146 C.3       2 UNK        -0.1931 
     34 N          26.3000   -2.7927   -1.7102 N.am      2 UNK        -0.4546 
     35 C          27.0400   -3.5860   -2.5048 C.2       1 UNK         0.5154 
     36 O          26.6808   -3.9453   -3.6299 O.2       1 UNK        -0.5181 
     37 C          26.7930    2.1357   -5.5042 C.2       5 UNK         0.5014 
     38 O          27.2033    3.1597   -6.0532 O.2       5 UNK        -0.5248 
     39 N          25.5039    1.7575   -5.4852 N.am      6 UNK        -0.4434 
     40 CA         24.4015    2.4950   -6.1177 C.3       6 UNK         0.0363 
     41 CB         23.0682    1.7992   -5.8062 C.3       6 UNK        -0.1936 
     42 C          24.5711    2.6803   -7.6386 C.2       6 UNK         0.5081 
     43 O          24.1526    3.7061   -8.1738 O.2       6 UNK        -0.5248 
     44 N          25.2352    1.7199   -8.2947 N.am      7 UNK        -0.4718 
     45 CA         25.6618    1.7631   -9.6966 C.3       7 UNK         0.0273 
     46 CB         25.8207    0.3174  -10.1996 C.3       7 UNK        -0.1935 
     47 C          26.9401    2.6002   -9.9400 C.2       7 UNK         0.5018 
     48 O          27.5680    2.4372  -10.9867 O.2       7 UNK        -0.5186 
     49 N          27.2963    3.4803   -8.9918 N.am      8 UNK        -0.4240 
     50 CA         28.4511    4.3846   -8.9750 C.3       8 UNK         0.0235 
     51 CB         28.4306    5.3624  -10.1707 C.3       8 UNK        -0.2000 
     52 C          29.7789    3.6242   -8.8206 C.2       8 UNK         0.4941 
     53 O          30.7100    3.8408   -9.5986 O.2       8 UNK        -0.5273 
     54 N          29.8309    2.7582   -7.7969 N.am      9 UNK        -0.4262 
     55 CA         30.9700    1.9194   -7.3986 C.3       9 UNK         0.0264 
     56 CB         32.1205    2.7831   -6.8407 C.3       9 UNK        -0.1955 
     57 C          31.4195    0.9541   -8.5109 C.2       9 UNK         0.5031 
     58 O          32.6130    0.8427   -8.8007 O.2       9 UNK        -0.5390 
     59 N          30.4533    0.2288   -9.0869 N.am      10 UNK        -0.4204 
     60 CA         30.6487   -0.8188  -10.0936 C.3       10 UNK         0.0237 
     61 CB         29.3614   -0.9514  -10.9273 C.3       10 UNK        -0.1985 
     62 C          31.0652   -2.1500   -9.4354 C.2       10 UNK         0.4970 
     63 O          30.4651   -3.1925   -9.7020 O.2       10 UNK        -0.4914 
     64 N          32.0657   -2.0760   -8.5538 N.am      11 UNK        -0.4285 
     65 CA         32.5393   -3.1697   -7.6964 C.3       11 UNK         0.1007 
     66 C          33.5722   -4.1150   -8.3743 C.2       11 UNK         0.5703 
     67 N          34.0335   -3.8400   -9.5889 N.am      11 UNK        -0.7361 
     68 O          33.9532   -5.1268   -7.7909 O.2       11 UNK        -0.4986 
     69 C69        33.0687   -2.6167   -6.3480 C.3       12 UNK        -0.0947 
     70 S70        31.7928   -1.6944   -5.4242 S.3       12 UNK        -0.2240 
     71 C71        32.8328   -0.7183   -4.3000 C.3       12 UNK         0.0194 
     72 H72        31.3013   -6.2657   -4.6360 H         1 UNK         0.0906 
     73 H73        30.1769   -5.4866   -5.7595 H         1 UNK         0.0906 
     74 H74        31.2432   -4.5049   -4.7405 H         1 UNK         0.0906 
     75 H75        29.9256   -3.4520   -3.2525 H         1 UNK         0.3140 
     76 H76        28.1849   -5.0485   -1.4920 H         1 UNK         0.1085 
     77 H77        29.0214   -2.1481   -1.1397 H         1 UNK         0.0836 
     78 H78        28.2804   -3.1780    0.0618 H         1 UNK         0.0836 
     79 H79        32.4267   -2.4180    0.6112 H         1 UNK         0.0731 
     80 H80        30.9017   -1.8151    1.2089 H         1 UNK         0.0731 
     81 H81        32.6643   -2.3023   -2.1022 H         1 UNK         0.1312 
     82 H82        31.3549    1.4840   -3.6354 H         1 UNK         0.1406 
     83 H83        30.1424    0.2116    0.2792 H         1 UNK         0.1631 
     84 H84        30.5325    3.0671   -1.1595 H         1 UNK         0.0717 
     85 H85        29.1516    2.1461   -0.6164 H         1 UNK         0.0717 
     86 H86        26.8872    1.4504   -2.8721 H         1 UNK         0.0934 
     87 H87        28.3214    0.4659   -2.8668 H         1 UNK         0.0934 
     88 H88        28.7889    1.4266   -5.2578 H         1 UNK         0.0739 
     89 H89        27.0431   -0.7861   -4.6144 H         1 UNK         0.3093 
     90 H90        27.1382   -2.1638   -7.9055 H         1 UNK         0.0818 
     91 H91        28.6628   -3.0309   -5.3997 H         1 UNK         0.0819 
     92 H92        28.1027   -4.1221   -6.6683 H         1 UNK         0.0819 
     93 H93        29.3168   -2.9023   -7.0229 H         1 UNK         0.0819 
     94 H94        26.1161   -3.0796   -5.3602 H         1 UNK         0.3041 
     95 H95        23.0098   -1.3575   -5.5537 H         1 UNK         0.0784 
     96 H96        22.5962   -3.1905   -7.2079 H         1 UNK         0.0793 
     97 H97        23.4710   -4.3211   -6.1841 H         1 UNK         0.0793 
     98 H98        21.9626   -3.5974   -5.6227 H         1 UNK         0.0793 
     99 H99        23.7200   -3.4482   -3.8444 H         1 UNK         0.3024 
    100 H100       24.7734   -1.4800   -1.2341 H         1 UNK         0.1171 
    101 H101       24.0388   -3.6828   -0.4596 H         1 UNK         0.0786 
    102 H102       22.8965   -3.1129   -1.6581 H         1 UNK         0.0786 
    103 H103       24.0828   -4.3482   -2.0842 H         1 UNK         0.0786 
    104 H104       26.7062   -2.5185   -0.8270 H         1 UNK         0.2977 
    105 H105       25.2627    0.9047   -4.9892 H         1 UNK         0.3127 
    106 H106       24.3811    3.4894   -5.6669 H         1 UNK         0.0770 
    107 H107       22.9952    0.8335   -6.3051 H         1 UNK         0.0814 
    108 H108       22.2278    2.4031   -6.1510 H         1 UNK         0.0814 
    109 H109       22.9369    1.6402   -4.7357 H         1 UNK         0.0814 
    110 H110       25.4759    0.8771   -7.7846 H         1 UNK         0.2983 
    111 H111       24.8700    2.2347  -10.2823 H         1 UNK         0.0947 
    112 H112       26.1078    0.2858  -11.2514 H         1 UNK         0.0806 
    113 H113       24.8875   -0.2381  -10.1047 H         1 UNK         0.0806 
    114 H114       26.5823   -0.2165   -9.6324 H         1 UNK         0.0806 
    115 H115       26.7466    3.4857   -8.1406 H         1 UNK         0.3000 
    116 H116       28.3440    4.9850   -8.0700 H         1 UNK         0.0850 
    117 H117       29.2145    6.1139  -10.0692 H         1 UNK         0.0810 
    118 H118       27.4802    5.8921  -10.2343 H         1 UNK         0.0810 
    119 H119       28.5961    4.8526  -11.1201 H         1 UNK         0.0810 
    120 H120       28.9878    2.6493   -7.2450 H         1 UNK         0.3040 
    121 H121       30.6245    1.2831   -6.5840 H         1 UNK         0.0766 
    122 H122       31.7803    3.4125   -6.0184 H         1 UNK         0.0812 
    123 H123       32.5490    3.4308   -7.6061 H         1 UNK         0.0812 
    124 H124       32.9273    2.1578   -6.4570 H         1 UNK         0.0812 
    125 H125       29.5216    0.2921   -8.6758 H         1 UNK         0.3205 
    126 H126       31.4554   -0.5180  -10.7652 H         1 UNK         0.0754 
    127 H127       29.5000   -1.6505  -11.7529 H         1 UNK         0.0769 
    128 H128       29.0651    0.0055  -11.3582 H         1 UNK         0.0769 
    129 H129       28.5316   -1.3197  -10.3238 H         1 UNK         0.0769 
    130 H130       32.5124   -1.1757   -8.4217 H         1 UNK         0.2981 
    131 H131       31.6822   -3.8053   -7.4659 H         1 UNK         0.0541 
    132 H132       34.6978   -4.4644  -10.0184 H         1 UNK         0.3459 
    133 H133       33.7238   -3.0158  -10.0779 H         1 UNK         0.3459 
    134 H134       33.4182   -3.4271   -5.7057 H         1 UNK         0.0612 
    135 H135       33.9270   -1.9644   -6.5196 H         1 UNK         0.0612 
    136 H136       33.7539   -1.2601   -4.0809 H         1 UNK         0.0624 
    137 H137       33.1266    0.2091   -4.7924 H         1 UNK         0.0624 
@<TRIPOS>BOND
     1    1    2 1    
     2    1   72 1    
     3    1   73 1    
     4    1   74 1    
     5    2    3 2    
     6    2    4 am   BACKBONE|DICT|INTERRES
     7    4    5 1    
     8    4   75 1    
     9    5    6 1    
    10    5   35 1    
    11    5   76 1    
    12    6    7 1    
    13    6   77 1    
    14    6   78 1    
    15    7    8 1    
    16    8    9 1    
    17    8   79 1    
    18    8   80 1    
    19    9   10 ar   
    20    9   14 ar   
    21   10   11 ar   
    22   10   81 1    
    23   11   12 ar   
    24   11   71 1    
    25   12   13 ar   
    26   12   82 1    
    27   13   14 ar   
    28   13   15 1    
    29   14   83 1    
    30   15   16 1    
    31   15   84 1    
    32   15   85 1    
    33   16   17 1    
    34   17   18 1    
    35   17   86 1    
    36   17   87 1    
    37   18   19 1    
    38   18   37 1    
    39   18   88 1    
    40   19   20 am   BACKBONE|DICT|INTERRES
    41   19   89 1    
    42   20   21 2    
    43   20   22 1    
    44   22   23 1    
    45   22   24 1    
    46   22   90 1    
    47   23   91 1    
    48   23   92 1    
    49   23   93 1    
    50   24   25 am   BACKBONE|DICT|INTERRES
    51   24   94 1    
    52   25   26 2    
    53   25   27 1    
    54   27   28 1    
    55   27   29 1    
    56   27   95 1    
    57   28   96 1    
    58   28   97 1    
    59   28   98 1    
    60   29   30 am   BACKBONE|DICT|INTERRES
    61   29   99 1    
    62   30   31 2    
    63   30   32 1    
    64   32   33 1    
    65   32   34 1    
    66   32  100 1    
    67   33  101 1    
    68   33  102 1    
    69   33  103 1    
    70   34   35 am   BACKBONE|DICT|INTERRES
    71   34  104 1    
    72   35   36 2    
    73   37   38 2    
    74   37   39 am   BACKBONE|DICT|INTERRES
    75   39   40 1    
    76   39  105 1    
    77   40   41 1    
    78   40   42 1    
    79   40  106 1    
    80   41  107 1    
    81   41  108 1    
    82   41  109 1    
    83   42   43 2    
    84   42   44 am   BACKBONE|DICT|INTERRES
    85   44   45 1    
    86   44  110 1    
    87   45   46 1    
    88   45   47 1    
    89   45  111 1    
    90   46  112 1    
    91   46  113 1    
    92   46  114 1    
    93   47   48 2    
    94   47   49 am   BACKBONE|DICT|INTERRES
    95   49   50 1    
    96   49  115 1    
    97   50   51 1    
    98   50   52 1    
    99   50  116 1    
   100   51  117 1    
   101   51  118 1    
   102   51  119 1    
   103   52   53 2    
   104   52   54 am   BACKBONE|DICT|INTERRES
   105   54   55 1    
   106   54  120 1    
   107   55   56 1    
   108   55   57 1    
   109   55  121 1    
   110   56  122 1    
   111   56  123 1    
   112   56  124 1    
   113   57   58 2    
   114   57   59 am   BACKBONE|DICT|INTERRES
   115   59   60 1    
   116   59  125 1    
   117   60   61 1    
   118   60   62 1    
   119   60  126 1    
   120   61  127 1    
   121   61  128 1    
   122   61  129 1    
   123   62   63 2    
   124   62   64 am   BACKBONE|DICT|INTERRES
   125   64   65 1    
   126   64  130 1    
   127   65   66 1    
   128   65   69 1    
   129   65  131 1    
   130   66   67 am   BACKBONE|DICT|INTERRES
   131   66   68 2    
   132   67  132 1    
   133   67  133 1    
   134   69   70 1    
   135   69  134 1    
   136   69  135 1    
   137   70   71 1    
   138   71  136 1    
   139   71  137 1    
@<TRIPOS>SUBSTRUCTURE
     1 UNK         1 GROUP             0       ****    0 ROOT    
