@<TRIPOS>MOLECULE
3R137
137   139    1
SMALL
USER_CHARGES


@<TRIPOS>ATOM
      1 CA         26.7767   -5.3354   -0.9639 C.3       0 UNK        -0.2020 
      2 C          27.4250   -4.1054   -0.3468 C.2       0 UNK         0.4855 
      3 O          27.1538   -3.7853    0.8104 O.2       0 UNK        -0.5197 
      4 N          28.2744   -3.4104   -1.1138 N.am      1 UNK        -0.4892 
      5 CA         28.9561   -2.1757   -0.7011 C.3       1 UNK         0.0835 
      6 C6         30.3119   -2.0084   -1.4374 C.3       12 UNK        -0.0855 
      7 S7         31.6607   -2.9815   -0.6717 S.3       12 UNK        -0.2931 
      8 C8         31.4988   -4.6574   -1.3814 C.3       12 UNK         0.0378 
      9 C9         31.4185   -4.6477   -2.9001 C.ar      12 UNK        -0.0802 
     10 C10        32.5107   -4.2373   -3.6703 C.ar      12 UNK        -0.0944 
     11 C11        32.4016   -4.1503   -5.0621 C.ar      12 UNK        -0.0787 
     12 C12        31.1905   -4.4736   -5.6805 C.ar      12 UNK        -0.0862 
     13 C13        30.0929   -4.8789   -4.9174 C.ar      12 UNK        -0.0733 
     14 C14        30.2272   -5.0067   -3.5332 C.ar      12 UNK        -0.0832 
     15 C15        28.7383   -5.0899   -5.5765 C.3       12 UNK         0.0240 
     16 S16        27.4405   -4.0397   -4.8336 S.3       12 UNK        -0.2522 
     17 C17        28.1765   -2.3644   -4.8925 C.3       12 UNK        -0.0967 
     18 CA         27.8616   -1.6026   -6.1969 C.3       5 UNK         0.0660 
     19 N          26.4303   -1.5672   -6.5009 N.am      5 UNK        -0.4015 
     20 C          25.9274   -1.1637   -7.6752 C.2       4 UNK         0.4946 
     21 O          26.6277   -0.8053   -8.6237 O.2       4 UNK        -0.5353 
     22 CA         24.3953   -1.0855   -7.8029 C.3       4 UNK         0.0277 
     23 CB         23.8476   -2.3818   -8.4187 C.3       4 UNK        -0.1981 
     24 N          23.6964   -0.8068   -6.5415 N.am      4 UNK        -0.4209 
     25 C          23.9181    0.2524   -5.7493 C.2       3 UNK         0.4942 
     26 O          24.7467    1.1276   -6.0039 O.2       3 UNK        -0.5208 
     27 CA         23.1425    0.3421   -4.4227 C.3       3 UNK         0.0250 
     28 CB         22.1337   -0.8069   -4.1905 C.3       3 UNK        -0.1990 
     29 N          24.0665    0.4617   -3.2868 N.am      3 UNK        -0.4232 
     30 C          25.0233   -0.4127   -2.9408 C.2       2 UNK         0.4993 
     31 O          25.2415   -1.4686   -3.5425 O.2       2 UNK        -0.5286 
     32 CA         25.8774   -0.0440   -1.7192 C.3       2 UNK         0.0209 
     33 CB         25.0182    0.0921   -0.4454 C.3       2 UNK        -0.1931 
     34 N          26.8904   -1.0774   -1.5161 N.am      2 UNK        -0.4546 
     35 C          28.0508   -0.9301   -0.8637 C.2       1 UNK         0.5154 
     36 O          28.4149    0.1421   -0.3786 O.2       1 UNK        -0.5181 
     37 C          28.4871   -0.1908   -6.1597 C.2       5 UNK         0.5014 
     38 O          29.6674   -0.0464   -6.4757 O.2       5 UNK        -0.5248 
     39 N          27.6940    0.8256   -5.7961 N.am      6 UNK        -0.4434 
     40 CA         28.1009    2.2283   -5.8076 C.3       6 UNK         0.0363 
     41 CB         27.4726    2.9494   -4.6040 C.3       6 UNK        -0.1936 
     42 C          27.6970    2.9105   -7.1229 C.2       6 UNK         0.5081 
     43 O          28.4896    3.6725   -7.6733 O.2       6 UNK        -0.5248 
     44 N          26.4741    2.6413   -7.5979 N.am      7 UNK        -0.4718 
     45 CA         25.8766    3.3056   -8.7563 C.3       7 UNK         0.0273 
     46 CB         24.3506    3.1239   -8.7167 C.3       7 UNK        -0.1935 
     47 C          26.4394    2.8421  -10.1088 C.2       7 UNK         0.5018 
     48 O          26.6062    3.6816  -10.9949 O.2       7 UNK        -0.5186 
     49 N          26.6931    1.5346  -10.2609 N.am      8 UNK        -0.4240 
     50 CA         27.1315    0.9272  -11.5196 C.3       8 UNK         0.0235 
     51 CB         26.1941   -0.2331  -11.8998 C.3       8 UNK        -0.2000 
     52 C          28.5875    0.4566  -11.4393 C.2       8 UNK         0.4941 
     53 O          29.3712    0.8021  -12.3244 O.2       8 UNK        -0.5273 
     54 N          28.9351   -0.3184  -10.3992 N.am      9 UNK        -0.4262 
     55 CA         30.2865   -0.8776  -10.2384 C.3       9 UNK         0.0264 
     56 CB         30.2560   -2.0950   -9.3004 C.3       9 UNK        -0.1955 
     57 C          31.3274    0.1548   -9.7643 C.2       9 UNK         0.5031 
     58 O          32.5166   -0.0426  -10.0179 O.2       9 UNK        -0.5390 
     59 N          30.8641    1.2304   -9.1081 N.am      10 UNK        -0.4204 
     60 CA         31.6425    2.3586   -8.5801 C.3       10 UNK         0.0237 
     61 CB         32.2726    3.1753   -9.7292 C.3       10 UNK        -0.1985 
     62 C          32.6600    1.9575   -7.4929 C.2       10 UNK         0.4970 
     63 O          33.7410    2.5455   -7.4189 O.2       10 UNK        -0.4914 
     64 N          32.2915    0.9802   -6.6565 N.am      11 UNK        -0.4285 
     65 CA         33.1025    0.4857   -5.5329 C.3       11 UNK         0.1007 
     66 C          32.9622    1.3309   -4.2336 C.2       11 UNK         0.5703 
     67 N          32.0766    2.3188   -4.1694 N.am      11 UNK        -0.7361 
     68 O          33.6847    1.0966   -3.2679 O.2       11 UNK        -0.4986 
     69 C69        32.8312   -1.0147   -5.2575 C.3       12 UNK        -0.0947 
     70 S70        33.2067   -2.0658   -6.7011 S.3       12 UNK        -0.2240 
     71 C71        33.5743   -3.6574   -5.8968 C.3       12 UNK         0.0194 
     72 H72        25.6931   -5.2781   -0.8626 H         1 UNK         0.0906 
     73 H73        27.0085   -5.4347   -2.0240 H         1 UNK         0.0906 
     74 H74        27.1191   -6.2355   -0.4541 H         1 UNK         0.0906 
     75 H75        28.4407   -3.7028   -2.0652 H         1 UNK         0.3140 
     76 H76        29.1637   -2.2353    0.3700 H         1 UNK         0.1085 
     77 H77        30.2243   -2.2372   -2.4995 H         1 UNK         0.0836 
     78 H78        30.6468   -0.9696   -1.3981 H         1 UNK         0.0836 
     79 H79        30.6223   -5.1401   -0.9466 H         1 UNK         0.0731 
     80 H80        32.3575   -5.2550   -1.0727 H         1 UNK         0.0731 
     81 H81        33.4325   -3.9545   -3.1805 H         1 UNK         0.1312 
     82 H82        31.0953   -4.3651   -6.7525 H         1 UNK         0.1406 
     83 H83        29.3806   -5.3334   -2.9471 H         1 UNK         0.1631 
     84 H84        28.4498   -6.1373   -5.4803 H         1 UNK         0.0717 
     85 H85        28.7877   -4.8770   -6.6456 H         1 UNK         0.0717 
     86 H86        27.7988   -1.8091   -4.0348 H         1 UNK         0.0934 
     87 H87        29.2555   -2.4200   -4.7460 H         1 UNK         0.0934 
     88 H88        28.3393   -2.1475   -7.0113 H         1 UNK         0.0739 
     89 H89        25.8055   -1.8287   -5.7473 H         1 UNK         0.3093 
     90 H90        24.1727   -0.2659   -8.4876 H         1 UNK         0.0818 
     91 H91        24.3353   -2.5973   -9.3708 H         1 UNK         0.0819 
     92 H92        24.0123   -3.2405   -7.7665 H         1 UNK         0.0819 
     93 H93        22.7779   -2.3080   -8.6157 H         1 UNK         0.0819 
     94 H94        23.0162   -1.4895   -6.2400 H         1 UNK         0.3041 
     95 H95        22.5788    1.2751   -4.4665 H         1 UNK         0.0784 
     96 H96        21.3831   -0.8422   -4.9812 H         1 UNK         0.0793 
     97 H97        22.6179   -1.7831   -4.1429 H         1 UNK         0.0793 
     98 H98        21.5958   -0.6658   -3.2529 H         1 UNK         0.0793 
     99 H99        23.9836    1.3160   -2.7536 H         1 UNK         0.3024 
    100 H100       26.3736    0.9054   -1.9336 H         1 UNK         0.1171 
    101 H101       24.2716    0.8804   -0.5457 H         1 UNK         0.0786 
    102 H102       24.4887   -0.8344   -0.2194 H         1 UNK         0.0786 
    103 H103       25.6291    0.3446    0.4215 H         1 UNK         0.0786 
    104 H104       26.6635   -1.9692   -1.9382 H         1 UNK         0.2977 
    105 H105       26.7114    0.6452   -5.6230 H         1 UNK         0.3127 
    106 H106       29.1859    2.3043   -5.7108 H         1 UNK         0.0770 
    107 H107       26.3828    2.9099   -4.6277 H         1 UNK         0.0814 
    108 H108       27.7606    4.0014   -4.5870 H         1 UNK         0.0814 
    109 H109       27.8036    2.5082   -3.6637 H         1 UNK         0.0814 
    110 H110       25.8609    2.0348   -7.0553 H         1 UNK         0.2983 
    111 H111       26.0841    4.3749   -8.6706 H         1 UNK         0.0947 
    112 H112       23.8730    3.6484   -9.5454 H         1 UNK         0.0806 
    113 H113       23.9280    3.5228   -7.7942 H         1 UNK         0.0806 
    114 H114       24.0652    2.0747   -8.7872 H         1 UNK         0.0806 
    115 H115       26.5615    0.9001   -9.4783 H         1 UNK         0.3000 
    116 H116       27.0768    1.6571  -12.3303 H         1 UNK         0.0850 
    117 H117       26.4823   -0.6649  -12.8591 H         1 UNK         0.0810 
    118 H118       25.1635    0.1085  -11.9960 H         1 UNK         0.0810 
    119 H119       26.2102   -1.0388  -11.1662 H         1 UNK         0.0810 
    120 H120       28.2247   -0.5815   -9.7203 H         1 UNK         0.3040 
    121 H121       30.6126   -1.2358  -11.2176 H         1 UNK         0.0766 
    122 H122       30.1674   -1.8005   -8.2578 H         1 UNK         0.0812 
    123 H123       31.1843   -2.6616   -9.3831 H         1 UNK         0.0812 
    124 H124       29.4373   -2.7740   -9.5389 H         1 UNK         0.0812 
    125 H125       29.8707    1.2656   -8.9301 H         1 UNK         0.3205 
    126 H126       30.9294    3.0109   -8.0784 H         1 UNK         0.0754 
    127 H127       32.7270    4.0934   -9.3548 H         1 UNK         0.0769 
    128 H128       31.5228    3.4642  -10.4659 H         1 UNK         0.0769 
    129 H129       33.0518    2.6139  -10.2456 H         1 UNK         0.0769 
    130 H130       31.3688    0.5589   -6.7489 H         1 UNK         0.2981 
    131 H131       34.1534    0.5690   -5.8164 H         1 UNK         0.0541 
    132 H132       31.4897    2.5268   -4.9592 H         1 UNK         0.3459 
    133 H133       32.0047    2.8623   -3.3242 H         1 UNK         0.3459 
    134 H134       31.7891   -1.1735   -4.9741 H         1 UNK         0.0612 
    135 H135       33.4358   -1.3618   -4.4175 H         1 UNK         0.0612 
    136 H136       33.8069   -4.3970   -6.6639 H         1 UNK         0.0624 
    137 H137       34.4724   -3.5498   -5.2867 H         1 UNK         0.0624 
@<TRIPOS>BOND
     1    1    2 1    
     2    1   72 1    
     3    1   73 1    
     4    1   74 1    
     5    2    3 2    
     6    2    4 am   BACKBONE|DICT|INTERRES
     7    4    5 1    
     8    4   75 1    
     9    5    6 1    
    10    5   35 1    
    11    5   76 1    
    12    6    7 1    
    13    6   77 1    
    14    6   78 1    
    15    7    8 1    
    16    8    9 1    
    17    8   79 1    
    18    8   80 1    
    19    9   10 ar   
    20    9   14 ar   
    21   10   11 ar   
    22   10   81 1    
    23   11   12 ar   
    24   11   71 1    
    25   12   13 ar   
    26   12   82 1    
    27   13   14 ar   
    28   13   15 1    
    29   14   83 1    
    30   15   16 1    
    31   15   84 1    
    32   15   85 1    
    33   16   17 1    
    34   17   18 1    
    35   17   86 1    
    36   17   87 1    
    37   18   19 1    
    38   18   37 1    
    39   18   88 1    
    40   19   20 am   BACKBONE|DICT|INTERRES
    41   19   89 1    
    42   20   21 2    
    43   20   22 1    
    44   22   23 1    
    45   22   24 1    
    46   22   90 1    
    47   23   91 1    
    48   23   92 1    
    49   23   93 1    
    50   24   25 am   BACKBONE|DICT|INTERRES
    51   24   94 1    
    52   25   26 2    
    53   25   27 1    
    54   27   28 1    
    55   27   29 1    
    56   27   95 1    
    57   28   96 1    
    58   28   97 1    
    59   28   98 1    
    60   29   30 am   BACKBONE|DICT|INTERRES
    61   29   99 1    
    62   30   31 2    
    63   30   32 1    
    64   32   33 1    
    65   32   34 1    
    66   32  100 1    
    67   33  101 1    
    68   33  102 1    
    69   33  103 1    
    70   34   35 am   BACKBONE|DICT|INTERRES
    71   34  104 1    
    72   35   36 2    
    73   37   38 2    
    74   37   39 am   BACKBONE|DICT|INTERRES
    75   39   40 1    
    76   39  105 1    
    77   40   41 1    
    78   40   42 1    
    79   40  106 1    
    80   41  107 1    
    81   41  108 1    
    82   41  109 1    
    83   42   43 2    
    84   42   44 am   BACKBONE|DICT|INTERRES
    85   44   45 1    
    86   44  110 1    
    87   45   46 1    
    88   45   47 1    
    89   45  111 1    
    90   46  112 1    
    91   46  113 1    
    92   46  114 1    
    93   47   48 2    
    94   47   49 am   BACKBONE|DICT|INTERRES
    95   49   50 1    
    96   49  115 1    
    97   50   51 1    
    98   50   52 1    
    99   50  116 1    
   100   51  117 1    
   101   51  118 1    
   102   51  119 1    
   103   52   53 2    
   104   52   54 am   BACKBONE|DICT|INTERRES
   105   54   55 1    
   106   54  120 1    
   107   55   56 1    
   108   55   57 1    
   109   55  121 1    
   110   56  122 1    
   111   56  123 1    
   112   56  124 1    
   113   57   58 2    
   114   57   59 am   BACKBONE|DICT|INTERRES
   115   59   60 1    
   116   59  125 1    
   117   60   61 1    
   118   60   62 1    
   119   60  126 1    
   120   61  127 1    
   121   61  128 1    
   122   61  129 1    
   123   62   63 2    
   124   62   64 am   BACKBONE|DICT|INTERRES
   125   64   65 1    
   126   64  130 1    
   127   65   66 1    
   128   65   69 1    
   129   65  131 1    
   130   66   67 am   BACKBONE|DICT|INTERRES
   131   66   68 2    
   132   67  132 1    
   133   67  133 1    
   134   69   70 1    
   135   69  134 1    
   136   69  135 1    
   137   70   71 1    
   138   71  136 1    
   139   71  137 1    
@<TRIPOS>SUBSTRUCTURE
     1 UNK         1 GROUP             0       ****    0 ROOT    
