@<TRIPOS>MOLECULE
3R137
137   139    1
SMALL
USER_CHARGES


@<TRIPOS>ATOM
      1 CA         27.5489   -5.2430    0.2313 C.3       0 UNK        -0.2020 
      2 C          28.0947   -3.9818    0.8840 C.2       0 UNK         0.4855 
      3 O          27.6452   -3.6069    1.9670 O.2       0 UNK        -0.5197 
      4 N          29.0621   -3.3248    0.2325 N.am      1 UNK        -0.4892 
      5 CA         29.6682   -2.0608    0.6724 C.3       1 UNK         0.0835 
      6 C6         31.0432   -1.8210   -0.0066 C.3       12 UNK        -0.0855 
      7 S7         30.9797   -1.8602   -1.8351 S.3       12 UNK        -0.2931 
      8 C8         31.7652   -3.4614   -2.1904 C.3       12 UNK         0.0378 
      9 C9         31.4605   -3.9073   -3.6112 C.ar      12 UNK        -0.0802 
     10 C10        32.2520   -3.4633   -4.6740 C.ar      12 UNK        -0.0944 
     11 C11        31.9694   -3.8608   -5.9848 C.ar      12 UNK        -0.0787 
     12 C12        30.8946   -4.7232   -6.2256 C.ar      12 UNK        -0.0862 
     13 C13        30.1034   -5.1839   -5.1685 C.ar      12 UNK        -0.0733 
     14 C14        30.3878   -4.7678   -3.8646 C.ar      12 UNK        -0.0832 
     15 C15        28.9574   -6.1529   -5.4247 C.3       12 UNK         0.0240 
     16 S16        27.3513   -5.3033   -5.5130 S.3       12 UNK        -0.2522 
     17 C17        27.4637   -4.5155   -7.1533 C.3       12 UNK        -0.0967 
     18 CA         26.1163   -3.8994   -7.6057 C.3       5 UNK         0.0660 
     19 N          25.6175   -2.8915   -6.6619 N.am      5 UNK        -0.4015 
     20 C          24.3196   -2.6120   -6.4787 C.2       4 UNK         0.4946 
     21 O          23.4146   -3.1606   -7.1101 O.2       4 UNK        -0.5353 
     22 CA         23.9383   -1.5711   -5.4135 C.3       4 UNK         0.0277 
     23 CB         23.3692   -2.2724   -4.1679 C.3       4 UNK        -0.1981 
     24 N          25.0635   -0.7332   -4.9979 N.am      4 UNK        -0.4209 
     25 C          25.1476    0.5915   -5.1586 C.2       3 UNK         0.4942 
     26 O          24.2839    1.2726   -5.7147 O.2       3 UNK        -0.5208 
     27 CA         26.3917    1.2689   -4.5496 C.3       3 UNK         0.0250 
     28 CB         26.5085    2.7577   -4.9253 C.3       3 UNK        -0.1990 
     29 N          26.4626    1.1303   -3.0921 N.am      3 UNK        -0.4232 
     30 C          26.8012    0.0087   -2.4429 C.2       2 UNK         0.4993 
     31 O          27.0092   -1.0754   -2.9989 O.2       2 UNK        -0.5286 
     32 CA         26.8944    0.1005   -0.9167 C.3       2 UNK         0.0209 
     33 CB         25.5145   -0.0946   -0.2652 C.3       2 UNK        -0.1931 
     34 N          27.7958   -0.9540   -0.4702 N.am      2 UNK        -0.4546 
     35 C          28.7237   -0.8512    0.4868 C.2       1 UNK         0.5154 
     36 O          28.8577    0.1413    1.2051 O.2       1 UNK        -0.5181 
     37 C          26.2395   -3.3286   -9.0321 C.2       5 UNK         0.5014 
     38 O          26.1388   -4.0897   -9.9960 O.2       5 UNK        -0.5248 
     39 N          26.4620   -2.0149   -9.1475 N.am      6 UNK        -0.4434 
     40 CA         26.6460   -1.2777  -10.3923 C.3       6 UNK         0.0363 
     41 CB         28.1043   -1.4403  -10.8698 C.3       6 UNK        -0.1936 
     42 C          26.3023    0.1991  -10.1560 C.2       6 UNK         0.5081 
     43 O          26.0720    0.6043   -9.0138 O.2       6 UNK        -0.5248 
     44 N          26.3185    0.9860  -11.2382 N.am      7 UNK        -0.4718 
     45 CA         26.1911    2.4491  -11.2089 C.3       7 UNK         0.0273 
     46 CB         25.4827    2.9061  -12.4963 C.3       7 UNK        -0.1935 
     47 C          27.5488    3.1677  -11.0486 C.2       7 UNK         0.5018 
     48 O          27.5737    4.3980  -10.9839 O.2       7 UNK        -0.5186 
     49 N          28.6488    2.4017  -11.0228 N.am      8 UNK        -0.4240 
     50 CA         30.0254    2.8733  -10.8544 C.3       8 UNK         0.0235 
     51 CB         30.9766    1.7139  -11.2001 C.3       8 UNK        -0.2000 
     52 C          30.3051    3.3914   -9.4320 C.2       8 UNK         0.4941 
     53 O          29.5328    3.1209   -8.5100 O.2       8 UNK        -0.5273 
     54 N          31.4323    4.0977   -9.2678 N.am      9 UNK        -0.4262 
     55 CA         31.9237    4.5925   -7.9778 C.3       9 UNK         0.0264 
     56 CB         33.2138    5.3996   -8.1962 C.3       9 UNK        -0.1955 
     57 C          32.1630    3.4441   -6.9808 C.2       9 UNK         0.5031 
     58 O          32.8272    2.4663   -7.3342 O.2       9 UNK        -0.5390 
     59 N          31.5933    3.5793   -5.7754 N.am      10 UNK        -0.4204 
     60 CA         31.5541    2.6191   -4.6617 C.3       10 UNK         0.0237 
     61 CB         32.9665    2.2663   -4.1526 C.3       10 UNK        -0.1985 
     62 C          30.7295    1.3492   -4.9461 C.2       10 UNK         0.4970 
     63 O          29.8776    1.0027   -4.1295 O.2       10 UNK        -0.4914 
     64 N          30.9963    0.6864   -6.0762 N.am      11 UNK        -0.4285 
     65 CA         30.3339   -0.5496   -6.5167 C.3       11 UNK         0.1007 
     66 C          28.8400   -0.3646   -6.8897 C.2       11 UNK         0.5703 
     67 N          28.4360    0.7613   -7.4595 N.am      11 UNK        -0.7361 
     68 O          28.0259   -1.2541   -6.6620 O.2       11 UNK        -0.4986 
     69 C69        31.0905   -1.2187   -7.6939 C.3       12 UNK        -0.0947 
     70 S70        32.8400   -1.5653   -7.3097 S.3       12 UNK        -0.2240 
     71 C71        32.8396   -3.3787   -7.1384 C.3       12 UNK         0.0194 
     72 H72        27.7031   -6.1008    0.8854 H         1 UNK         0.0906 
     73 H73        28.0326   -5.4528   -0.7226 H         1 UNK         0.0906 
     74 H74        26.4790   -5.1391    0.0522 H         1 UNK         0.0906 
     75 H75        29.3858   -3.6637   -0.6617 H         1 UNK         0.3140 
     76 H76        29.8471   -2.1388    1.7475 H         1 UNK         0.1085 
     77 H77        31.4598   -0.8602    0.3027 H         1 UNK         0.0836 
     78 H78        31.7574   -2.5671    0.3453 H         1 UNK         0.0836 
     79 H79        32.8431   -3.3757   -2.0440 H         1 UNK         0.0731 
     80 H80        31.4177   -4.2142   -1.4813 H         1 UNK         0.0731 
     81 H81        33.0819   -2.7963   -4.4834 H         1 UNK         0.1312 
     82 H82        30.6772   -5.0436   -7.2353 H         1 UNK         0.1406 
     83 H83        29.7719   -5.1184   -3.0479 H         1 UNK         0.1631 
     84 H84        28.9182   -6.8891   -4.6205 H         1 UNK         0.0717 
     85 H85        29.1264   -6.7190   -6.3421 H         1 UNK         0.0717 
     86 H86        28.2516   -3.7619   -7.1250 H         1 UNK         0.0934 
     87 H87        27.7904   -5.2707   -7.8711 H         1 UNK         0.0934 
     88 H88        25.3897   -4.7137   -7.6557 H         1 UNK         0.0739 
     89 H89        26.3285   -2.3633   -6.1690 H         1 UNK         0.3093 
     90 H90        23.1476   -0.9549   -5.8466 H         1 UNK         0.0818 
     91 H91        22.5141   -2.8989   -4.4259 H         1 UNK         0.0819 
     92 H92        24.1126   -2.9128   -3.6911 H         1 UNK         0.0819 
     93 H93        23.0276   -1.5483   -3.4281 H         1 UNK         0.0819 
     94 H94        25.8016   -1.1746   -4.4525 H         1 UNK         0.3041 
     95 H95        27.2626    0.7645   -4.9614 H         1 UNK         0.0784 
     96 H96        26.4994    2.8852   -6.0090 H         1 UNK         0.0793 
     97 H97        25.6857    3.3459   -4.5176 H         1 UNK         0.0793 
     98 H98        27.4441    3.1836   -4.5621 H         1 UNK         0.0793 
     99 H99        26.2597    1.9618   -2.5563 H         1 UNK         0.3024 
    100 H100       27.3006    1.0786   -0.6480 H         1 UNK         0.1171 
    101 H101       25.0747   -1.0559   -0.5348 H         1 UNK         0.0786 
    102 H102       25.5816   -0.0514    0.8221 H         1 UNK         0.0786 
    103 H103       24.8180    0.6839   -0.5787 H         1 UNK         0.0786 
    104 H104       27.8097   -1.7677   -1.0724 H         1 UNK         0.2977 
    105 H105       26.5175   -1.4450   -8.3098 H         1 UNK         0.3127 
    106 H106       25.9610   -1.6687  -11.1476 H         1 UNK         0.0770 
    107 H107       28.2749   -0.9359  -11.8212 H         1 UNK         0.0814 
    108 H108       28.8108   -1.0305  -10.1466 H         1 UNK         0.0814 
    109 H109       28.3579   -2.4898  -11.0203 H         1 UNK         0.0814 
    110 H110       26.4962    0.5700  -12.1421 H         1 UNK         0.2983 
    111 H111       25.5723    2.7433  -10.3579 H         1 UNK         0.0947 
    112 H112       26.0654    2.6651  -13.3862 H         1 UNK         0.0806 
    113 H113       25.3228    3.9853  -12.4942 H         1 UNK         0.0806 
    114 H114       24.5036    2.4376  -12.5978 H         1 UNK         0.0806 
    115 H115       28.5164    1.4034  -11.0455 H         1 UNK         0.3000 
    116 H116       30.1926    3.6940  -11.5553 H         1 UNK         0.0850 
    117 H117       32.0210    2.0206  -11.1293 H         1 UNK         0.0810 
    118 H118       30.8166    1.3588  -12.2185 H         1 UNK         0.0810 
    119 H119       30.8415    0.8681  -10.5253 H         1 UNK         0.0810 
    120 H120       32.0334    4.2469  -10.0651 H         1 UNK         0.3040 
    121 H121       31.1625    5.2634   -7.5738 H         1 UNK         0.0766 
    122 H122       33.5890    5.7978   -7.2525 H         1 UNK         0.0812 
    123 H123       33.0461    6.2477   -8.8604 H         1 UNK         0.0812 
    124 H124       34.0056    4.7851   -8.6271 H         1 UNK         0.0812 
    125 H125       31.0451    4.4148   -5.6214 H         1 UNK         0.3205 
    126 H126       31.0436    3.1408   -3.8503 H         1 UNK         0.0754 
    127 H127       32.9102    1.6356   -3.2642 H         1 UNK         0.0769 
    128 H128       33.5252    3.1617   -3.8806 H         1 UNK         0.0769 
    129 H129       33.5479    1.7208   -4.8965 H         1 UNK         0.0769 
    130 H130       31.7145    1.0646   -6.6876 H         1 UNK         0.2981 
    131 H131       30.3579   -1.2415   -5.6722 H         1 UNK         0.0541 
    132 H132       27.4715    0.8348   -7.7632 H         1 UNK         0.3459 
    133 H133       29.0678    1.5299   -7.6654 H         1 UNK         0.3459 
    134 H134       31.0675   -0.5723   -8.5725 H         1 UNK         0.0612 
    135 H135       30.5979   -2.1473   -7.9888 H         1 UNK         0.0612 
    136 H136       33.8639   -3.7141   -6.9713 H         1 UNK         0.0624 
    137 H137       32.5211   -3.8224   -8.0829 H         1 UNK         0.0624 
@<TRIPOS>BOND
     1    1    2 1    
     2    1   72 1    
     3    1   73 1    
     4    1   74 1    
     5    2    3 2    
     6    2    4 am   BACKBONE|DICT|INTERRES
     7    4    5 1    
     8    4   75 1    
     9    5    6 1    
    10    5   35 1    
    11    5   76 1    
    12    6    7 1    
    13    6   77 1    
    14    6   78 1    
    15    7    8 1    
    16    8    9 1    
    17    8   79 1    
    18    8   80 1    
    19    9   10 ar   
    20    9   14 ar   
    21   10   11 ar   
    22   10   81 1    
    23   11   12 ar   
    24   11   71 1    
    25   12   13 ar   
    26   12   82 1    
    27   13   14 ar   
    28   13   15 1    
    29   14   83 1    
    30   15   16 1    
    31   15   84 1    
    32   15   85 1    
    33   16   17 1    
    34   17   18 1    
    35   17   86 1    
    36   17   87 1    
    37   18   19 1    
    38   18   37 1    
    39   18   88 1    
    40   19   20 am   BACKBONE|DICT|INTERRES
    41   19   89 1    
    42   20   21 2    
    43   20   22 1    
    44   22   23 1    
    45   22   24 1    
    46   22   90 1    
    47   23   91 1    
    48   23   92 1    
    49   23   93 1    
    50   24   25 am   BACKBONE|DICT|INTERRES
    51   24   94 1    
    52   25   26 2    
    53   25   27 1    
    54   27   28 1    
    55   27   29 1    
    56   27   95 1    
    57   28   96 1    
    58   28   97 1    
    59   28   98 1    
    60   29   30 am   BACKBONE|DICT|INTERRES
    61   29   99 1    
    62   30   31 2    
    63   30   32 1    
    64   32   33 1    
    65   32   34 1    
    66   32  100 1    
    67   33  101 1    
    68   33  102 1    
    69   33  103 1    
    70   34   35 am   BACKBONE|DICT|INTERRES
    71   34  104 1    
    72   35   36 2    
    73   37   38 2    
    74   37   39 am   BACKBONE|DICT|INTERRES
    75   39   40 1    
    76   39  105 1    
    77   40   41 1    
    78   40   42 1    
    79   40  106 1    
    80   41  107 1    
    81   41  108 1    
    82   41  109 1    
    83   42   43 2    
    84   42   44 am   BACKBONE|DICT|INTERRES
    85   44   45 1    
    86   44  110 1    
    87   45   46 1    
    88   45   47 1    
    89   45  111 1    
    90   46  112 1    
    91   46  113 1    
    92   46  114 1    
    93   47   48 2    
    94   47   49 am   BACKBONE|DICT|INTERRES
    95   49   50 1    
    96   49  115 1    
    97   50   51 1    
    98   50   52 1    
    99   50  116 1    
   100   51  117 1    
   101   51  118 1    
   102   51  119 1    
   103   52   53 2    
   104   52   54 am   BACKBONE|DICT|INTERRES
   105   54   55 1    
   106   54  120 1    
   107   55   56 1    
   108   55   57 1    
   109   55  121 1    
   110   56  122 1    
   111   56  123 1    
   112   56  124 1    
   113   57   58 2    
   114   57   59 am   BACKBONE|DICT|INTERRES
   115   59   60 1    
   116   59  125 1    
   117   60   61 1    
   118   60   62 1    
   119   60  126 1    
   120   61  127 1    
   121   61  128 1    
   122   61  129 1    
   123   62   63 2    
   124   62   64 am   BACKBONE|DICT|INTERRES
   125   64   65 1    
   126   64  130 1    
   127   65   66 1    
   128   65   69 1    
   129   65  131 1    
   130   66   67 am   BACKBONE|DICT|INTERRES
   131   66   68 2    
   132   67  132 1    
   133   67  133 1    
   134   69   70 1    
   135   69  134 1    
   136   69  135 1    
   137   70   71 1    
   138   71  136 1    
   139   71  137 1    
@<TRIPOS>SUBSTRUCTURE
     1 UNK         1 GROUP             0       ****    0 ROOT    
