@<TRIPOS>MOLECULE
3R137
137   139    1
SMALL
USER_CHARGES


@<TRIPOS>ATOM
      1 CA         29.0079   -0.8774   -2.0464 C.3       0 UNK        -0.2020 
      2 C          29.1122   -1.0486   -0.5318 C.2       0 UNK         0.4855 
      3 O          29.4854   -0.1016    0.1574 O.2       0 UNK        -0.5197 
      4 N          28.8031   -2.2232    0.0330 N.am      1 UNK        -0.4892 
      5 CA         28.2820   -3.4129   -0.6470 C.3       1 UNK         0.0835 
      6 C6         28.7079   -4.7304    0.0513 C.3       12 UNK        -0.0855 
      7 S7         30.5135   -4.9041    0.2614 S.3       12 UNK        -0.2931 
      8 C8         30.9953   -5.8106   -1.2438 C.3       12 UNK         0.0378 
      9 C9         31.0104   -4.8983   -2.4611 C.ar      12 UNK        -0.0802 
     10 C10        32.0311   -3.9552   -2.6095 C.ar      12 UNK        -0.0944 
     11 C11        32.0488   -3.0950   -3.7099 C.ar      12 UNK        -0.0787 
     12 C12        31.0355   -3.1844   -4.6709 C.ar      12 UNK        -0.0862 
     13 C13        30.0108   -4.1277   -4.5354 C.ar      12 UNK        -0.0733 
     14 C14        30.0094   -4.9886   -3.4330 C.ar      12 UNK        -0.0832 
     15 C15        28.9040   -4.2304   -5.5753 C.3       12 UNK         0.0240 
     16 S16        27.4523   -3.2378   -5.1014 S.3       12 UNK        -0.2522 
     17 C17        27.8773   -1.5949   -5.7734 C.3       12 UNK        -0.0967 
     18 CA         26.9007   -1.1222   -6.8825 C.3       5 UNK         0.0660 
     19 N          25.5146   -1.1301   -6.4046 N.am      5 UNK        -0.4015 
     20 C          24.4238   -0.6462   -7.0176 C.2       4 UNK         0.4946 
     21 O          24.4143   -0.2085   -8.1681 O.2       4 UNK        -0.5353 
     22 CA         23.1379   -0.5711   -6.1723 C.3       4 UNK         0.0277 
     23 CB         22.2005   -1.7384   -6.5186 C.3       4 UNK        -0.1981 
     24 N          23.3763   -0.5597   -4.7225 N.am      4 UNK        -0.4209 
     25 C          24.1182    0.3246   -4.0401 C.2       3 UNK         0.4942 
     26 O          24.6807    1.2884   -4.5611 O.2       3 UNK        -0.5208 
     27 CA         24.3470    0.0402   -2.5453 C.3       3 UNK         0.0250 
     28 CB         23.1431    0.4921   -1.6961 C.3       3 UNK        -0.1990 
     29 N          24.7374   -1.3509   -2.2559 N.am      3 UNK        -0.4232 
     30 C          24.0160   -2.4771   -2.3722 C.2       2 UNK         0.4993 
     31 O          22.8447   -2.4920   -2.7540 O.2       2 UNK        -0.5286 
     32 CA         24.7151   -3.8184   -2.0673 C.3       2 UNK         0.0209 
     33 CB         24.4558   -4.8411   -3.1893 C.3       2 UNK        -0.1931 
     34 N          26.1656   -3.7187   -1.8551 N.am      2 UNK        -0.4546 
     35 C          26.7458   -3.3311   -0.7121 C.2       1 UNK         0.5154 
     36 O          26.1135   -2.9380    0.2704 O.2       1 UNK        -0.5181 
     37 C          27.3500    0.2578   -7.4098 C.2       5 UNK         0.5014 
     38 O          28.0993    0.3162   -8.3866 O.2       5 UNK        -0.5248 
     39 N          26.8658    1.3433   -6.7830 N.am      6 UNK        -0.4434 
     40 CA         27.1508    2.7332   -7.1508 C.3       6 UNK         0.0363 
     41 CB         26.4668    3.6738   -6.1477 C.3       6 UNK        -0.1936 
     42 C          26.7553    3.1071   -8.5913 C.2       6 UNK         0.5081 
     43 O          27.3850    3.9953   -9.1651 O.2       6 UNK        -0.5248 
     44 N          25.7784    2.4003   -9.1820 N.am      7 UNK        -0.4718 
     45 CA         25.3875    2.5512  -10.5895 C.3       7 UNK         0.0273 
     46 CB         24.0908    1.7681  -10.8475 C.3       7 UNK        -0.1935 
     47 C          26.4852    2.1168  -11.5811 C.2       7 UNK         0.5018 
     48 O          26.4915    2.5946  -12.7158 O.2       7 UNK        -0.5186 
     49 N          27.4009    1.2481  -11.1311 N.am      8 UNK        -0.4240 
     50 CA         28.5930    0.8105  -11.8589 C.3       8 UNK         0.0235 
     51 CB         28.6776   -0.7247  -11.7710 C.3       8 UNK        -0.2000 
     52 C          29.8717    1.4735  -11.3067 C.2       8 UNK         0.4941 
     53 O          30.9663    0.9974  -11.6086 O.2       8 UNK        -0.5273 
     54 N          29.7213    2.5323  -10.4915 N.am      9 UNK        -0.4262 
     55 CA         30.7667    3.2515   -9.7473 C.3       9 UNK         0.0264 
     56 CB         31.7899    3.9085  -10.6985 C.3       9 UNK        -0.1955 
     57 C          31.4381    2.4105   -8.6406 C.2       9 UNK         0.5031 
     58 O          32.5291    2.7649   -8.1857 O.2       9 UNK        -0.5390 
     59 N          30.7640    1.3353   -8.2039 N.am      10 UNK        -0.4204 
     60 CA         31.1544    0.3915   -7.1573 C.3       10 UNK         0.0237 
     61 CB         30.9329    1.0276   -5.7658 C.3       10 UNK        -0.1985 
     62 C          32.5572   -0.1950   -7.3956 C.2       10 UNK         0.4970 
     63 O          32.7417   -0.9189   -8.3749 O.2       10 UNK        -0.4914 
     64 N          33.4999    0.1248   -6.5060 N.am      11 UNK        -0.4285 
     65 CA         34.9114   -0.2779   -6.5721 C.3       11 UNK         0.1007 
     66 C          35.8504    0.9155   -6.9183 C.2       11 UNK         0.5703 
     67 N          35.3416    2.0643   -7.3536 N.am      11 UNK        -0.7361 
     68 O          37.0686    0.7974   -6.8082 O.2       11 UNK        -0.4986 
     69 C69        35.3410   -1.0256   -5.2788 C.3       12 UNK        -0.0947 
     70 S70        34.4161   -2.5824   -5.0418 S.3       12 UNK        -0.2240 
     71 C71        33.1508   -2.0563   -3.8473 C.3       12 UNK         0.0194 
     72 H72        29.2200    0.1534   -2.3302 H         1 UNK         0.0906 
     73 H73        28.0095   -1.1192   -2.4065 H         1 UNK         0.0906 
     74 H74        29.7309   -1.5143   -2.5551 H         1 UNK         0.0906 
     75 H75        28.8612   -2.3042    1.0381 H         1 UNK         0.3140 
     76 H76        28.6686   -3.4405   -1.6647 H         1 UNK         0.1085 
     77 H77        28.2610   -4.7942    1.0458 H         1 UNK         0.0836 
     78 H78        28.3313   -5.5954   -0.4986 H         1 UNK         0.0836 
     79 H79        30.3310   -6.6629   -1.3951 H         1 UNK         0.0731 
     80 H80        31.9933   -6.2267   -1.0981 H         1 UNK         0.0731 
     81 H81        32.8060   -3.8851   -1.8582 H         1 UNK         0.1312 
     82 H82        31.0509   -2.5216   -5.5243 H         1 UNK         0.1406 
     83 H83        29.2200   -5.7206   -3.3263 H         1 UNK         0.1631 
     84 H84        28.5937   -5.2715   -5.6761 H         1 UNK         0.0717 
     85 H85        29.2648   -3.9304   -6.5603 H         1 UNK         0.0717 
     86 H86        27.8900   -0.8867   -4.9427 H         1 UNK         0.0934 
     87 H87        28.8967   -1.6236   -6.1547 H         1 UNK         0.0934 
     88 H88        26.9542   -1.8215   -7.7191 H         1 UNK         0.0739 
     89 H89        25.3903   -1.4969   -5.4735 H         1 UNK         0.3093 
     90 H90        22.6378    0.3648   -6.4291 H         1 UNK         0.0818 
     91 H91        21.9854   -1.7635   -7.5880 H         1 UNK         0.0819 
     92 H92        22.6383   -2.7008   -6.2499 H         1 UNK         0.0819 
     93 H93        21.2460   -1.6480   -5.9998 H         1 UNK         0.0819 
     94 H94        22.9729   -1.3229   -4.1815 H         1 UNK         0.3041 
     95 H95        25.1999    0.6502   -2.2427 H         1 UNK         0.0784 
     96 H96        22.9412    1.5537   -1.8450 H         1 UNK         0.0793 
     97 H97        22.2310   -0.0475   -1.9521 H         1 UNK         0.0793 
     98 H98        23.3318    0.3446   -0.6327 H         1 UNK         0.0793 
     99 H99        25.6860   -1.4665   -1.9325 H         1 UNK         0.3024 
    100 H100       24.2572   -4.2021   -1.1523 H         1 UNK         0.1171 
    101 H101       24.9234   -5.8009   -2.9692 H         1 UNK         0.0786 
    102 H102       23.3883   -5.0289   -3.3130 H         1 UNK         0.0786 
    103 H103       24.8367   -4.4939   -4.1503 H         1 UNK         0.0786 
    104 H104       26.7441   -4.0026   -2.6345 H         1 UNK         0.2977 
    105 H105       26.2174    1.2139   -6.0126 H         1 UNK         0.3127 
    106 H106       28.2304    2.8744   -7.0681 H         1 UNK         0.0770 
    107 H107       25.3820    3.5606   -6.1660 H         1 UNK         0.0814 
    108 H108       26.6909    4.7174   -6.3732 H         1 UNK         0.0814 
    109 H109       26.8053    3.4830   -5.1292 H         1 UNK         0.0814 
    110 H110       25.3278    1.6519   -8.6648 H         1 UNK         0.2983 
    111 H111       25.1888    3.6102  -10.7689 H         1 UNK         0.0947 
    112 H112       24.2346    0.6953  -10.7132 H         1 UNK         0.0806 
    113 H113       23.7381    1.9233  -11.8681 H         1 UNK         0.0806 
    114 H114       23.2926    2.0861  -10.1766 H         1 UNK         0.0806 
    115 H115       27.3314    0.9230  -10.1716 H         1 UNK         0.3000 
    116 H116       28.5187    1.0886  -12.9122 H         1 UNK         0.0850 
    117 H117       29.5141   -1.1081  -12.3567 H         1 UNK         0.0810 
    118 H118       27.7730   -1.1940  -12.1581 H         1 UNK         0.0810 
    119 H119       28.8166   -1.0617  -10.7429 H         1 UNK         0.0810 
    120 H120       28.7789    2.8628  -10.3139 H         1 UNK         0.3040 
    121 H121       30.2495    4.0575   -9.2248 H         1 UNK         0.0766 
    122 H122       32.4180    3.1682  -11.1944 H         1 UNK         0.0812 
    123 H123       32.4543    4.5797  -10.1530 H         1 UNK         0.0812 
    124 H124       31.2945    4.5006  -11.4678 H         1 UNK         0.0812 
    125 H125       29.8738    1.1190   -8.6422 H         1 UNK         0.3205 
    126 H126       30.4731   -0.4524   -7.2499 H         1 UNK         0.0754 
    127 H127       31.1217    0.3140   -4.9647 H         1 UNK         0.0769 
    128 H128       29.8998    1.3561   -5.6511 H         1 UNK         0.0769 
    129 H129       31.5685    1.8988   -5.6029 H         1 UNK         0.0769 
    130 H130       33.2647    0.7710   -5.7677 H         1 UNK         0.2981 
    131 H131       35.0496   -0.9741   -7.4009 H         1 UNK         0.0541 
    132 H132       34.3454    2.1767   -7.5140 H         1 UNK         0.3459 
    133 H133       35.9679    2.8211   -7.5764 H         1 UNK         0.3459 
    134 H134       35.2249   -0.3860   -4.4021 H         1 UNK         0.0612 
    135 H135       36.3986   -1.2910   -5.3230 H         1 UNK         0.0612 
    136 H136       32.7164   -1.1089   -4.1601 H         1 UNK         0.0624 
    137 H137       33.6273   -1.8693   -2.8837 H         1 UNK         0.0624 
@<TRIPOS>BOND
     1    1    2 1    
     2    1   72 1    
     3    1   73 1    
     4    1   74 1    
     5    2    3 2    
     6    2    4 am   BACKBONE|DICT|INTERRES
     7    4    5 1    
     8    4   75 1    
     9    5    6 1    
    10    5   35 1    
    11    5   76 1    
    12    6    7 1    
    13    6   77 1    
    14    6   78 1    
    15    7    8 1    
    16    8    9 1    
    17    8   79 1    
    18    8   80 1    
    19    9   10 ar   
    20    9   14 ar   
    21   10   11 ar   
    22   10   81 1    
    23   11   12 ar   
    24   11   71 1    
    25   12   13 ar   
    26   12   82 1    
    27   13   14 ar   
    28   13   15 1    
    29   14   83 1    
    30   15   16 1    
    31   15   84 1    
    32   15   85 1    
    33   16   17 1    
    34   17   18 1    
    35   17   86 1    
    36   17   87 1    
    37   18   19 1    
    38   18   37 1    
    39   18   88 1    
    40   19   20 am   BACKBONE|DICT|INTERRES
    41   19   89 1    
    42   20   21 2    
    43   20   22 1    
    44   22   23 1    
    45   22   24 1    
    46   22   90 1    
    47   23   91 1    
    48   23   92 1    
    49   23   93 1    
    50   24   25 am   BACKBONE|DICT|INTERRES
    51   24   94 1    
    52   25   26 2    
    53   25   27 1    
    54   27   28 1    
    55   27   29 1    
    56   27   95 1    
    57   28   96 1    
    58   28   97 1    
    59   28   98 1    
    60   29   30 am   BACKBONE|DICT|INTERRES
    61   29   99 1    
    62   30   31 2    
    63   30   32 1    
    64   32   33 1    
    65   32   34 1    
    66   32  100 1    
    67   33  101 1    
    68   33  102 1    
    69   33  103 1    
    70   34   35 am   BACKBONE|DICT|INTERRES
    71   34  104 1    
    72   35   36 2    
    73   37   38 2    
    74   37   39 am   BACKBONE|DICT|INTERRES
    75   39   40 1    
    76   39  105 1    
    77   40   41 1    
    78   40   42 1    
    79   40  106 1    
    80   41  107 1    
    81   41  108 1    
    82   41  109 1    
    83   42   43 2    
    84   42   44 am   BACKBONE|DICT|INTERRES
    85   44   45 1    
    86   44  110 1    
    87   45   46 1    
    88   45   47 1    
    89   45  111 1    
    90   46  112 1    
    91   46  113 1    
    92   46  114 1    
    93   47   48 2    
    94   47   49 am   BACKBONE|DICT|INTERRES
    95   49   50 1    
    96   49  115 1    
    97   50   51 1    
    98   50   52 1    
    99   50  116 1    
   100   51  117 1    
   101   51  118 1    
   102   51  119 1    
   103   52   53 2    
   104   52   54 am   BACKBONE|DICT|INTERRES
   105   54   55 1    
   106   54  120 1    
   107   55   56 1    
   108   55   57 1    
   109   55  121 1    
   110   56  122 1    
   111   56  123 1    
   112   56  124 1    
   113   57   58 2    
   114   57   59 am   BACKBONE|DICT|INTERRES
   115   59   60 1    
   116   59  125 1    
   117   60   61 1    
   118   60   62 1    
   119   60  126 1    
   120   61  127 1    
   121   61  128 1    
   122   61  129 1    
   123   62   63 2    
   124   62   64 am   BACKBONE|DICT|INTERRES
   125   64   65 1    
   126   64  130 1    
   127   65   66 1    
   128   65   69 1    
   129   65  131 1    
   130   66   67 am   BACKBONE|DICT|INTERRES
   131   66   68 2    
   132   67  132 1    
   133   67  133 1    
   134   69   70 1    
   135   69  134 1    
   136   69  135 1    
   137   70   71 1    
   138   71  136 1    
   139   71  137 1    
@<TRIPOS>SUBSTRUCTURE
     1 UNK         1 GROUP             0       ****    0 ROOT    
