@<TRIPOS>MOLECULE
3R137
137   139    1
SMALL
USER_CHARGES


@<TRIPOS>ATOM
      1 CA         24.3409   -4.4909   -2.1692 C.3       0 UNK        -0.2020 
      2 C          25.0181   -3.2088   -1.7106 C.2       0 UNK         0.4855 
      3 O          24.3478   -2.3161   -1.1901 O.2       0 UNK        -0.5197 
      4 N          26.3400   -3.1041   -1.9060 N.am      1 UNK        -0.4892 
      5 CA         27.1543   -1.9278   -1.5788 C.3       1 UNK         0.0835 
      6 C6         28.6586   -2.1757   -1.8496 C.3       12 UNK        -0.0855 
      7 S7         29.4134   -3.2783   -0.6045 S.3       12 UNK        -0.2931 
      8 C8         29.7002   -4.8329   -1.5199 C.3       12 UNK         0.0378 
      9 C9         30.5605   -4.6673   -2.7698 C.ar      12 UNK        -0.0802 
     10 C10        31.7515   -3.9311   -2.7397 C.ar      12 UNK        -0.0944 
     11 C11        32.5065   -3.7486   -3.9031 C.ar      12 UNK        -0.0787 
     12 C12        32.0818   -4.3373   -5.0965 C.ar      12 UNK        -0.0862 
     13 C13        30.8952   -5.0753   -5.1396 C.ar      12 UNK        -0.0733 
     14 C14        30.1473   -5.2492   -3.9721 C.ar      12 UNK        -0.0832 
     15 C15        30.3675   -5.5933   -6.4703 C.3       12 UNK         0.0240 
     16 S16        28.9300   -4.6248   -7.0495 S.3       12 UNK        -0.2522 
     17 C17        29.4872   -2.9167   -6.7184 C.3       12 UNK        -0.0967 
     18 CA         28.4617   -1.8268   -7.0951 C.3       5 UNK         0.0660 
     19 N          27.1355   -2.1122   -6.5437 N.am      5 UNK        -0.4015 
     20 C          26.0384   -1.3494   -6.6154 C.2       4 UNK         0.4946 
     21 O          26.0365   -0.1818   -7.0110 O.2       4 UNK        -0.5353 
     22 CA         24.7146   -2.0053   -6.1968 C.3       4 UNK         0.0277 
     23 CB         24.8219   -3.5021   -5.8265 C.3       4 UNK        -0.1981 
     24 N          24.1504   -1.2660   -5.0754 N.am      4 UNK        -0.4209 
     25 C          22.8421   -1.0602   -4.8699 C.2       3 UNK         0.4942 
     26 O          21.9649   -1.4592   -5.6378 O.2       3 UNK        -0.5208 
     27 CA         22.4172   -0.3112   -3.5911 C.3       3 UNK         0.0250 
     28 CB         21.5000   -1.1884   -2.7208 C.3       3 UNK        -0.1990 
     29 N          23.5585    0.1321   -2.7871 N.am      3 UNK        -0.4232 
     30 C          24.2337    1.2694   -3.0057 C.2       2 UNK         0.4993 
     31 O          23.9037    2.1058   -3.8459 O.2       2 UNK        -0.5286 
     32 CA         25.5030    1.5158   -2.1722 C.3       2 UNK         0.0209 
     33 CB         25.2093    2.4893   -1.0195 C.3       2 UNK        -0.1931 
     34 N          26.1144    0.2968   -1.6277 N.am      2 UNK        -0.4546 
     35 C          26.6522   -0.6937   -2.3538 C.2       1 UNK         0.5154 
     36 O          26.7301   -0.6779   -3.5844 O.2       1 UNK        -0.5181 
     37 C          29.0608   -0.4583   -6.7259 C.2       5 UNK         0.5014 
     38 O          29.7836    0.0956   -7.5514 O.2       5 UNK        -0.5248 
     39 N          28.7941    0.0645   -5.5188 N.am      6 UNK        -0.4434 
     40 CA         29.3537    1.3518   -5.0891 C.3       6 UNK         0.0363 
     41 CB         29.3513    1.4728   -3.5598 C.3       6 UNK        -0.1936 
     42 C          28.6932    2.5634   -5.7703 C.2       6 UNK         0.5081 
     43 O          29.2774    3.6474   -5.7568 O.2       6 UNK        -0.5248 
     44 N          27.5136    2.3601   -6.3706 N.am      7 UNK        -0.4718 
     45 CA         26.8544    3.3251   -7.2467 C.3       7 UNK         0.0273 
     46 CB         25.3650    3.4079   -6.8733 C.3       7 UNK        -0.1935 
     47 C          27.0181    2.9278   -8.7227 C.2       7 UNK         0.5018 
     48 O          27.2432    3.8021   -9.5602 O.2       7 UNK        -0.5186 
     49 N          26.8690    1.6299   -9.0220 N.am      8 UNK        -0.4240 
     50 CA         26.7530    1.1067  -10.3840 C.3       8 UNK         0.0235 
     51 CB         25.8628   -0.1479  -10.3467 C.3       8 UNK        -0.2000 
     52 C          28.0838    0.7753  -11.0810 C.2       8 UNK         0.4941 
     53 O          28.0720    0.6395  -12.3061 O.2       8 UNK        -0.5273 
     54 N          29.1816    0.5945  -10.3347 N.am      9 UNK        -0.4262 
     55 CA         30.4379    0.0444  -10.8507 C.3       9 UNK         0.0264 
     56 CB         30.4540   -1.4783  -10.5932 C.3       9 UNK        -0.1955 
     57 C          31.6631    0.7531  -10.2502 C.2       9 UNK         0.5031 
     58 O          31.5346    1.7841   -9.5851 O.2       9 UNK        -0.5390 
     59 N          32.8458    0.1792  -10.5152 N.am      10 UNK        -0.4204 
     60 CA         34.1699    0.6888  -10.1400 C.3       10 UNK         0.0237 
     61 CB         35.2450   -0.1816  -10.8132 C.3       10 UNK        -0.1985 
     62 C          34.4376    0.7960   -8.6264 C.2       10 UNK         0.4970 
     63 O          35.3849    1.4847   -8.2441 O.2       10 UNK        -0.4914 
     64 N          33.6164    0.1396   -7.7946 N.am      11 UNK        -0.4285 
     65 CA         33.6117    0.3189   -6.3343 C.3       11 UNK         0.1007 
     66 C          33.1171    1.7297   -5.8837 C.2       11 UNK         0.5703 
     67 N          32.4201    2.4904   -6.7230 N.am      11 UNK        -0.7361 
     68 O          33.3872    2.1516   -4.7625 O.2       11 UNK        -0.4986 
     69 C69        32.8434   -0.8361   -5.6308 C.3       12 UNK        -0.0947 
     70 S70        33.3743   -1.1137   -3.9042 S.3       12 UNK        -0.2240 
     71 C71        33.7661   -2.8939   -3.8750 C.3       12 UNK         0.0194 
     72 H72        23.5739   -4.2640   -2.9092 H         1 UNK         0.0906 
     73 H73        25.0474   -5.1902   -2.6156 H         1 UNK         0.0906 
     74 H74        23.8626   -4.9843   -1.3237 H         1 UNK         0.0906 
     75 H75        26.8384   -3.8674   -2.3376 H         1 UNK         0.3140 
     76 H76        27.0279   -1.7302   -0.5119 H         1 UNK         0.1085 
     77 H77        28.8161   -2.5596   -2.8591 H         1 UNK         0.0836 
     78 H78        29.2159   -1.2387   -1.7996 H         1 UNK         0.0836 
     79 H79        30.1903   -5.5439   -0.8536 H         1 UNK         0.0731 
     80 H80        28.7315   -5.2673   -1.7708 H         1 UNK         0.0731 
     81 H81        32.0761   -3.4716   -1.8160 H         1 UNK         0.1312 
     82 H82        32.6529   -4.1856   -6.0021 H         1 UNK         0.1406 
     83 H83        29.2210   -5.8062   -4.0154 H         1 UNK         0.1631 
     84 H84        30.0793   -6.6407   -6.3709 H         1 UNK         0.0717 
     85 H85        31.1467   -5.5592   -7.2333 H         1 UNK         0.0717 
     86 H86        29.7126   -2.8286   -5.6539 H         1 UNK         0.0934 
     87 H87        30.4302   -2.7597   -7.2465 H         1 UNK         0.0934 
     88 H88        28.3429   -1.8351   -8.1804 H         1 UNK         0.0739 
     89 H89        27.0265   -3.0509   -6.1890 H         1 UNK         0.3093 
     90 H90        24.0548   -1.9138   -7.0621 H         1 UNK         0.0818 
     91 H91        23.8402   -3.9160   -5.5948 H         1 UNK         0.0819 
     92 H92        25.2214   -4.0910   -6.6535 H         1 UNK         0.0819 
     93 H93        25.4577   -3.6638   -4.9554 H         1 UNK         0.0819 
     94 H94        24.8286   -0.8631   -4.4375 H         1 UNK         0.3041 
     95 H95        21.8416    0.5618   -3.9063 H         1 UNK         0.0784 
     96 H96        20.5897   -1.4558   -3.2590 H         1 UNK         0.0793 
     97 H97        21.9869   -2.1186   -2.4275 H         1 UNK         0.0793 
     98 H98        21.1959   -0.6675   -1.8127 H         1 UNK         0.0793 
     99 H99        23.8984   -0.5220   -2.0877 H         1 UNK         0.3024 
    100 H100       26.2178    1.9922   -2.8440 H         1 UNK         0.1171 
    101 H101       24.7746    3.4178   -1.3930 H         1 UNK         0.0786 
    102 H102       26.1199    2.7548   -0.4820 H         1 UNK         0.0786 
    103 H103       24.5052    2.0656   -0.3022 H         1 UNK         0.0786 
    104 H104       26.0642    0.1857   -0.6247 H         1 UNK         0.2977 
    105 H105       28.1309   -0.3912   -4.8963 H         1 UNK         0.3127 
    106 H106       30.3981    1.3665   -5.3908 H         1 UNK         0.0770 
    107 H107       28.3451    1.4948   -3.1549 H         1 UNK         0.0814 
    108 H108       29.8447    2.3935   -3.2458 H         1 UNK         0.0814 
    109 H109       29.8917    0.6471   -3.0984 H         1 UNK         0.0814 
    110 H110       27.1060    1.4312   -6.3360 H         1 UNK         0.2983 
    111 H111       27.2896    4.3190   -7.1208 H         1 UNK         0.0947 
    112 H112       24.8371    4.1094   -7.5205 H         1 UNK         0.0806 
    113 H113       25.2347    3.7518   -5.8470 H         1 UNK         0.0806 
    114 H114       24.8681    2.4406   -6.9627 H         1 UNK         0.0806 
    115 H115       26.6462    0.9796   -8.2709 H         1 UNK         0.3000 
    116 H116       26.2470    1.8529  -11.0008 H         1 UNK         0.0850 
    117 H117       25.6829   -0.5316  -11.3520 H         1 UNK         0.0810 
    118 H118       24.8898    0.0672   -9.9044 H         1 UNK         0.0810 
    119 H119       26.3230   -0.9509   -9.7698 H         1 UNK         0.0810 
    120 H120       29.1689    0.7681   -9.3333 H         1 UNK         0.3040 
    121 H121       30.4986    0.2128  -11.9279 H         1 UNK         0.0766 
    122 H122       31.2841   -1.9680  -11.1026 H         1 UNK         0.0812 
    123 H123       29.5423   -1.9515  -10.9588 H         1 UNK         0.0812 
    124 H124       30.5400   -1.7050   -9.5306 H         1 UNK         0.0812 
    125 H125       32.8432   -0.6658  -11.0681 H         1 UNK         0.3205 
    126 H126       34.2506    1.7005  -10.5430 H         1 UNK         0.0754 
    127 H127       36.2466    0.1899  -10.5912 H         1 UNK         0.0769 
    128 H128       35.1374   -0.1797  -11.8982 H         1 UNK         0.0769 
    129 H129       35.1989   -1.2163  -10.4710 H         1 UNK         0.0769 
    130 H130       32.8431   -0.3751   -8.1868 H         1 UNK         0.2981 
    131 H131       34.6550    0.2519   -6.0193 H         1 UNK         0.0541 
    132 H132       32.1656    2.1561   -7.6464 H         1 UNK         0.3459 
    133 H133       32.1013    3.3953   -6.4163 H         1 UNK         0.3459 
    134 H134       32.9951   -1.7640   -6.1824 H         1 UNK         0.0612 
    135 H135       31.7684   -0.6598   -5.6413 H         1 UNK         0.0612 
    136 H136       34.3296   -3.1126   -2.9669 H         1 UNK         0.0624 
    137 H137       34.4255   -3.1386   -4.7092 H         1 UNK         0.0624 
@<TRIPOS>BOND
     1    1    2 1    
     2    1   72 1    
     3    1   73 1    
     4    1   74 1    
     5    2    3 2    
     6    2    4 am   BACKBONE|DICT|INTERRES
     7    4    5 1    
     8    4   75 1    
     9    5    6 1    
    10    5   35 1    
    11    5   76 1    
    12    6    7 1    
    13    6   77 1    
    14    6   78 1    
    15    7    8 1    
    16    8    9 1    
    17    8   79 1    
    18    8   80 1    
    19    9   10 ar   
    20    9   14 ar   
    21   10   11 ar   
    22   10   81 1    
    23   11   12 ar   
    24   11   71 1    
    25   12   13 ar   
    26   12   82 1    
    27   13   14 ar   
    28   13   15 1    
    29   14   83 1    
    30   15   16 1    
    31   15   84 1    
    32   15   85 1    
    33   16   17 1    
    34   17   18 1    
    35   17   86 1    
    36   17   87 1    
    37   18   19 1    
    38   18   37 1    
    39   18   88 1    
    40   19   20 am   BACKBONE|DICT|INTERRES
    41   19   89 1    
    42   20   21 2    
    43   20   22 1    
    44   22   23 1    
    45   22   24 1    
    46   22   90 1    
    47   23   91 1    
    48   23   92 1    
    49   23   93 1    
    50   24   25 am   BACKBONE|DICT|INTERRES
    51   24   94 1    
    52   25   26 2    
    53   25   27 1    
    54   27   28 1    
    55   27   29 1    
    56   27   95 1    
    57   28   96 1    
    58   28   97 1    
    59   28   98 1    
    60   29   30 am   BACKBONE|DICT|INTERRES
    61   29   99 1    
    62   30   31 2    
    63   30   32 1    
    64   32   33 1    
    65   32   34 1    
    66   32  100 1    
    67   33  101 1    
    68   33  102 1    
    69   33  103 1    
    70   34   35 am   BACKBONE|DICT|INTERRES
    71   34  104 1    
    72   35   36 2    
    73   37   38 2    
    74   37   39 am   BACKBONE|DICT|INTERRES
    75   39   40 1    
    76   39  105 1    
    77   40   41 1    
    78   40   42 1    
    79   40  106 1    
    80   41  107 1    
    81   41  108 1    
    82   41  109 1    
    83   42   43 2    
    84   42   44 am   BACKBONE|DICT|INTERRES
    85   44   45 1    
    86   44  110 1    
    87   45   46 1    
    88   45   47 1    
    89   45  111 1    
    90   46  112 1    
    91   46  113 1    
    92   46  114 1    
    93   47   48 2    
    94   47   49 am   BACKBONE|DICT|INTERRES
    95   49   50 1    
    96   49  115 1    
    97   50   51 1    
    98   50   52 1    
    99   50  116 1    
   100   51  117 1    
   101   51  118 1    
   102   51  119 1    
   103   52   53 2    
   104   52   54 am   BACKBONE|DICT|INTERRES
   105   54   55 1    
   106   54  120 1    
   107   55   56 1    
   108   55   57 1    
   109   55  121 1    
   110   56  122 1    
   111   56  123 1    
   112   56  124 1    
   113   57   58 2    
   114   57   59 am   BACKBONE|DICT|INTERRES
   115   59   60 1    
   116   59  125 1    
   117   60   61 1    
   118   60   62 1    
   119   60  126 1    
   120   61  127 1    
   121   61  128 1    
   122   61  129 1    
   123   62   63 2    
   124   62   64 am   BACKBONE|DICT|INTERRES
   125   64   65 1    
   126   64  130 1    
   127   65   66 1    
   128   65   69 1    
   129   65  131 1    
   130   66   67 am   BACKBONE|DICT|INTERRES
   131   66   68 2    
   132   67  132 1    
   133   67  133 1    
   134   69   70 1    
   135   69  134 1    
   136   69  135 1    
   137   70   71 1    
   138   71  136 1    
   139   71  137 1    
@<TRIPOS>SUBSTRUCTURE
     1 UNK         1 GROUP             0       ****    0 ROOT    
