@<TRIPOS>MOLECULE
3R137
137   139    1
SMALL
USER_CHARGES


@<TRIPOS>ATOM
      1 CA         29.6365   -3.7444   -4.9326 C.3       0 UNK        -0.2020 
      2 C          28.5855   -4.4508   -4.0960 C.2       0 UNK         0.4855 
      3 O          27.6312   -4.9942   -4.6510 O.2       0 UNK        -0.5197 
      4 N          28.7572   -4.4578   -2.7675 N.am      1 UNK        -0.4892 
      5 CA         27.8276   -5.0824   -1.8152 C.3       1 UNK         0.0835 
      6 C6         28.4401   -5.2707   -0.4034 C.3       12 UNK        -0.0855 
      7 S7         30.0942   -6.0411   -0.4131 S.3       12 UNK        -0.2931 
      8 C8         31.1223   -4.6912    0.2518 C.3       12 UNK         0.0378 
      9 C9         31.3734   -3.5939   -0.7748 C.ar      12 UNK        -0.0802 
     10 C10        32.4383   -3.7174   -1.6724 C.ar      12 UNK        -0.0944 
     11 C11        32.7235   -2.6938   -2.5790 C.ar      12 UNK        -0.0787 
     12 C12        31.9282   -1.5446   -2.5914 C.ar      12 UNK        -0.0862 
     13 C13        30.8365   -1.4211   -1.7262 C.ar      12 UNK        -0.0733 
     14 C14        30.5734   -2.4446   -0.8084 C.ar      12 UNK        -0.0832 
     15 C15        29.9657   -0.1688   -1.7616 C.3       12 UNK         0.0240 
     16 S16        28.7075   -0.2271   -3.0830 S.3       12 UNK        -0.2522 
     17 C17        29.7433    0.0570   -4.5602 C.3       12 UNK        -0.0967 
     18 CA         28.9865    0.5130   -5.8329 C.3       5 UNK         0.0660 
     19 N          27.8201   -0.3254   -6.1213 N.am      5 UNK        -0.4015 
     20 C          27.2567   -0.4515   -7.3281 C.2       4 UNK         0.4946 
     21 O          27.6893    0.0987   -8.3412 O.2       4 UNK        -0.5353 
     22 CA         25.9652   -1.2810   -7.4150 C.3       4 UNK         0.0277 
     23 CB         26.2886   -2.7576   -7.6869 C.3       4 UNK        -0.1981 
     24 N          25.1077   -1.1768   -6.2285 N.am      4 UNK        -0.4209 
     25 C          24.5559   -0.0485   -5.7641 C.2       3 UNK         0.4942 
     26 O          24.7837    1.0612   -6.2421 O.2       3 UNK        -0.5208 
     27 CA         23.6223   -0.1586   -4.5478 C.3       3 UNK         0.0250 
     28 CB         22.3702   -1.0035   -4.8587 C.3       3 UNK        -0.1990 
     29 N          24.3044   -0.6086   -3.3275 N.am      3 UNK        -0.4232 
     30 C          24.8860   -1.7927   -3.0912 C.2       2 UNK         0.4993 
     31 O          24.8891   -2.7280   -3.8949 O.2       2 UNK        -0.5286 
     32 CA         25.5969   -1.9177   -1.7337 C.3       2 UNK         0.0209 
     33 CB         24.5947   -2.1015   -0.5747 C.3       2 UNK        -0.1931 
     34 N          26.6377   -2.9530   -1.7407 N.am      2 UNK        -0.4546 
     35 C          26.5100   -4.2897   -1.7009 C.2       1 UNK         0.5154 
     36 O          25.4477   -4.8976   -1.5591 O.2       1 UNK        -0.5181 
     37 C          28.6829    2.0286   -5.8447 C.2       5 UNK         0.5014 
     38 O          29.6275    2.8179   -5.8783 O.2       5 UNK        -0.5248 
     39 N          27.4004    2.4211   -5.8485 N.am      6 UNK        -0.4434 
     40 CA         26.9605    3.8114   -5.9658 C.3       6 UNK         0.0363 
     41 CB         25.9202    4.1141   -4.8734 C.3       6 UNK        -0.1936 
     42 C          26.3817    4.0878   -7.3611 C.2       6 UNK         0.5081 
     43 O          26.7718    5.0689   -7.9933 O.2       6 UNK        -0.5248 
     44 N          25.4520    3.2337   -7.8099 N.am      7 UNK        -0.4718 
     45 CA         24.6817    3.4103   -9.0416 C.3       7 UNK         0.0273 
     46 CB         23.4168    2.5371   -8.9802 C.3       7 UNK        -0.1935 
     47 C          25.4898    3.1079  -10.3107 C.2       7 UNK         0.5018 
     48 O          25.4781    3.9168  -11.2394 O.2       7 UNK        -0.5186 
     49 N          26.1635    1.9503  -10.3331 N.am      8 UNK        -0.4240 
     50 CA         26.9662    1.4891  -11.4709 C.3       8 UNK         0.0235 
     51 CB         26.7603   -0.0263  -11.6476 C.3       8 UNK        -0.2000 
     52 C          28.4601    1.8132  -11.3063 C.2       8 UNK         0.4941 
     53 O          29.2055    1.6881  -12.2786 O.2       8 UNK        -0.5273 
     54 N          28.8699    2.1918  -10.0854 N.am      9 UNK        -0.4262 
     55 CA         30.2494    2.3843   -9.6247 C.3       9 UNK         0.0264 
     56 CB         30.9196    3.5748  -10.3430 C.3       9 UNK        -0.1955 
     57 C          31.0784    1.0854   -9.6939 C.2       9 UNK         0.5031 
     58 O          32.2754    1.1320   -9.9873 O.2       9 UNK        -0.5390 
     59 N          30.4264   -0.0561   -9.4280 N.am      10 UNK        -0.4204 
     60 CA         31.0496   -1.3763   -9.3600 C.3       10 UNK         0.0237 
     61 CB         29.9603   -2.4535   -9.5090 C.3       10 UNK        -0.1985 
     62 C          31.8103   -1.5064   -8.0320 C.2       10 UNK         0.4970 
     63 O          31.1836   -1.8102   -7.0200 O.2       10 UNK        -0.4914 
     64 N          33.1169   -1.2145   -8.0742 N.am      11 UNK        -0.4285 
     65 CA         34.0519   -1.0419   -6.9471 C.3       11 UNK         0.1007 
     66 C          33.6818    0.1026   -5.9540 C.2       11 UNK         0.5703 
     67 N          34.5300    0.3726   -4.9703 N.am      11 UNK        -0.7361 
     68 O          32.6750    0.7934   -6.0892 O.2       11 UNK        -0.4986 
     69 C69        34.5226   -2.3773   -6.2837 C.3       12 UNK        -0.0947 
     70 S70        33.3173   -3.2379   -5.2137 S.3       12 UNK        -0.2240 
     71 C71        33.8945   -2.8155   -3.5412 C.3       12 UNK         0.0194 
     72 H72        29.1709   -2.9872   -5.5624 H         1 UNK         0.0906 
     73 H73        30.3857   -3.2543   -4.3134 H         1 UNK         0.0906 
     74 H74        30.1488   -4.4545   -5.5811 H         1 UNK         0.0906 
     75 H75        29.5916   -4.0499   -2.3654 H         1 UNK         0.3140 
     76 H76        27.5770   -6.0720   -2.2046 H         1 UNK         0.1085 
     77 H77        27.7867   -5.9067    0.1973 H         1 UNK         0.0836 
     78 H78        28.4879   -4.3212    0.1315 H         1 UNK         0.0836 
     79 H79        32.0768   -5.1104    0.5741 H         1 UNK         0.0731 
     80 H80        30.6611   -4.2802    1.1513 H         1 UNK         0.0731 
     81 H81        33.0550   -4.6059   -1.6536 H         1 UNK         0.1312 
     82 H82        32.1573   -0.7517   -3.2897 H         1 UNK         0.1406 
     83 H83        29.7540   -2.3379   -0.1107 H         1 UNK         0.1631 
     84 H84        30.5894    0.7178   -1.8855 H         1 UNK         0.0717 
     85 H85        29.4553   -0.0430   -0.8055 H         1 UNK         0.0717 
     86 H86        30.5371    0.7663   -4.3181 H         1 UNK         0.0934 
     87 H87        30.2573   -0.8775   -4.7803 H         1 UNK         0.0934 
     88 H88        29.6855    0.3736   -6.6594 H         1 UNK         0.0739 
     89 H89        27.4048   -0.7965   -5.3311 H         1 UNK         0.3093 
     90 H90        25.3927   -0.8976   -8.2620 H         1 UNK         0.0818 
     91 H91        25.3794   -3.3455   -7.8132 H         1 UNK         0.0819 
     92 H92        26.8703   -2.8681   -8.6027 H         1 UNK         0.0819 
     93 H93        26.8640   -3.2035   -6.8742 H         1 UNK         0.0819 
     94 H94        24.9381   -2.0253   -5.6931 H         1 UNK         0.3041 
     95 H95        23.2768    0.8544   -4.3344 H         1 UNK         0.0784 
     96 H96        21.8415   -0.6079   -5.7270 H         1 UNK         0.0793 
     97 H97        22.6121   -2.0442   -5.0751 H         1 UNK         0.0793 
     98 H98        21.6710   -0.9925   -4.0226 H         1 UNK         0.0793 
     99 H99        24.3726    0.0955   -2.6051 H         1 UNK         0.3024 
    100 H100       26.1286   -0.9799   -1.5628 H         1 UNK         0.1171 
    101 H101       25.1077   -2.2431    0.3766 H         1 UNK         0.0786 
    102 H102       23.9552   -1.2245   -0.4684 H         1 UNK         0.0786 
    103 H103       23.9368   -2.9563   -0.7333 H         1 UNK         0.0786 
    104 H104       27.5700   -2.6055   -1.9161 H         1 UNK         0.2977 
    105 H105       26.6681    1.7203   -5.8623 H         1 UNK         0.3127 
    106 H106       27.7998    4.4943   -5.8175 H         1 UNK         0.0770 
    107 H107       25.0439    3.4695   -4.9500 H         1 UNK         0.0814 
    108 H108       25.5729    5.1458   -4.9420 H         1 UNK         0.0814 
    109 H109       26.3451    3.9812   -3.8784 H         1 UNK         0.0814 
    110 H110       25.1795    2.4493   -7.2174 H         1 UNK         0.2983 
    111 H111       24.3647    4.4545   -9.0959 H         1 UNK         0.0947 
    112 H112       22.8134    2.6581   -9.8810 H         1 UNK         0.0806 
    113 H113       22.7896    2.8104   -8.1315 H         1 UNK         0.0806 
    114 H114       23.6574    1.4773   -8.8870 H         1 UNK         0.0806 
    115 H115       26.1494    1.3533   -9.5164 H         1 UNK         0.3000 
    116 H116       26.6295    1.9790  -12.3872 H         1 UNK         0.0850 
    117 H117       27.3020   -0.3930  -12.5205 H         1 UNK         0.0810 
    118 H118       25.7080   -0.2685  -11.7963 H         1 UNK         0.0810 
    119 H119       27.1162   -0.5925  -10.7869 H         1 UNK         0.0810 
    120 H120       28.1657    2.2096   -9.3608 H         1 UNK         0.3040 
    121 H121       30.1829    2.6392   -8.5666 H         1 UNK         0.0766 
    122 H122       30.3101    4.4755  -10.2705 H         1 UNK         0.0812 
    123 H123       31.0910    3.3681  -11.3997 H         1 UNK         0.0812 
    124 H124       31.8882    3.8030   -9.8969 H         1 UNK         0.0812 
    125 H125       29.4479   -0.0021   -9.1556 H         1 UNK         0.3205 
    126 H126       31.7501   -1.4869  -10.1906 H         1 UNK         0.0754 
    127 H127       30.3969   -3.4526   -9.4844 H         1 UNK         0.0769 
    128 H128       29.4277   -2.3522  -10.4549 H         1 UNK         0.0769 
    129 H129       29.2267   -2.4004   -8.7047 H         1 UNK         0.0769 
    130 H130       33.4811   -0.9049   -8.9642 H         1 UNK         0.2981 
    131 H131       34.9356   -0.6456   -7.4486 H         1 UNK         0.0541 
    132 H132       35.3894   -0.1413   -4.8631 H         1 UNK         0.3459 
    133 H133       34.3190    1.1323   -4.3432 H         1 UNK         0.3459 
    134 H134       34.8086   -3.0785   -7.0687 H         1 UNK         0.0612 
    135 H135       35.4381   -2.2099   -5.7149 H         1 UNK         0.0612 
    136 H136       34.4457   -1.8767   -3.5476 H         1 UNK         0.0624 
    137 H137       34.5978   -3.5789   -3.2056 H         1 UNK         0.0624 
@<TRIPOS>BOND
     1    1    2 1    
     2    1   72 1    
     3    1   73 1    
     4    1   74 1    
     5    2    3 2    
     6    2    4 am   BACKBONE|DICT|INTERRES
     7    4    5 1    
     8    4   75 1    
     9    5    6 1    
    10    5   35 1    
    11    5   76 1    
    12    6    7 1    
    13    6   77 1    
    14    6   78 1    
    15    7    8 1    
    16    8    9 1    
    17    8   79 1    
    18    8   80 1    
    19    9   10 ar   
    20    9   14 ar   
    21   10   11 ar   
    22   10   81 1    
    23   11   12 ar   
    24   11   71 1    
    25   12   13 ar   
    26   12   82 1    
    27   13   14 ar   
    28   13   15 1    
    29   14   83 1    
    30   15   16 1    
    31   15   84 1    
    32   15   85 1    
    33   16   17 1    
    34   17   18 1    
    35   17   86 1    
    36   17   87 1    
    37   18   19 1    
    38   18   37 1    
    39   18   88 1    
    40   19   20 am   BACKBONE|DICT|INTERRES
    41   19   89 1    
    42   20   21 2    
    43   20   22 1    
    44   22   23 1    
    45   22   24 1    
    46   22   90 1    
    47   23   91 1    
    48   23   92 1    
    49   23   93 1    
    50   24   25 am   BACKBONE|DICT|INTERRES
    51   24   94 1    
    52   25   26 2    
    53   25   27 1    
    54   27   28 1    
    55   27   29 1    
    56   27   95 1    
    57   28   96 1    
    58   28   97 1    
    59   28   98 1    
    60   29   30 am   BACKBONE|DICT|INTERRES
    61   29   99 1    
    62   30   31 2    
    63   30   32 1    
    64   32   33 1    
    65   32   34 1    
    66   32  100 1    
    67   33  101 1    
    68   33  102 1    
    69   33  103 1    
    70   34   35 am   BACKBONE|DICT|INTERRES
    71   34  104 1    
    72   35   36 2    
    73   37   38 2    
    74   37   39 am   BACKBONE|DICT|INTERRES
    75   39   40 1    
    76   39  105 1    
    77   40   41 1    
    78   40   42 1    
    79   40  106 1    
    80   41  107 1    
    81   41  108 1    
    82   41  109 1    
    83   42   43 2    
    84   42   44 am   BACKBONE|DICT|INTERRES
    85   44   45 1    
    86   44  110 1    
    87   45   46 1    
    88   45   47 1    
    89   45  111 1    
    90   46  112 1    
    91   46  113 1    
    92   46  114 1    
    93   47   48 2    
    94   47   49 am   BACKBONE|DICT|INTERRES
    95   49   50 1    
    96   49  115 1    
    97   50   51 1    
    98   50   52 1    
    99   50  116 1    
   100   51  117 1    
   101   51  118 1    
   102   51  119 1    
   103   52   53 2    
   104   52   54 am   BACKBONE|DICT|INTERRES
   105   54   55 1    
   106   54  120 1    
   107   55   56 1    
   108   55   57 1    
   109   55  121 1    
   110   56  122 1    
   111   56  123 1    
   112   56  124 1    
   113   57   58 2    
   114   57   59 am   BACKBONE|DICT|INTERRES
   115   59   60 1    
   116   59  125 1    
   117   60   61 1    
   118   60   62 1    
   119   60  126 1    
   120   61  127 1    
   121   61  128 1    
   122   61  129 1    
   123   62   63 2    
   124   62   64 am   BACKBONE|DICT|INTERRES
   125   64   65 1    
   126   64  130 1    
   127   65   66 1    
   128   65   69 1    
   129   65  131 1    
   130   66   67 am   BACKBONE|DICT|INTERRES
   131   66   68 2    
   132   67  132 1    
   133   67  133 1    
   134   69   70 1    
   135   69  134 1    
   136   69  135 1    
   137   70   71 1    
   138   71  136 1    
   139   71  137 1    
@<TRIPOS>SUBSTRUCTURE
     1 UNK         1 GROUP             0       ****    0 ROOT    
