@<TRIPOS>MOLECULE
3R137
137   139    1
SMALL
USER_CHARGES


@<TRIPOS>ATOM
      1 CA         24.9492   -4.7456    2.2893 C.3       0 UNK        -0.2020 
      2 C          25.8130   -3.5080    2.0981 C.2       0 UNK         0.4855 
      3 O          25.7201   -2.5690    2.8887 O.2       0 UNK        -0.5197 
      4 N          26.6514   -3.4972    1.0523 N.am      1 UNK        -0.4892 
      5 CA         27.5530   -2.3846    0.7141 C.3       1 UNK         0.0835 
      6 C6         28.7186   -2.8653   -0.1938 C.3       12 UNK        -0.0855 
      7 S7         30.2834   -2.0180    0.1971 S.3       12 UNK        -0.2931 
      8 C8         31.4329   -2.8471   -0.9461 C.3       12 UNK         0.0378 
      9 C9         31.2614   -2.3697   -2.3820 C.ar      12 UNK        -0.0802 
     10 C10        31.6049   -1.0596   -2.7251 C.ar      12 UNK        -0.0944 
     11 C11        31.4890   -0.6064   -4.0419 C.ar      12 UNK        -0.0787 
     12 C12        31.0132   -1.4871   -5.0235 C.ar      12 UNK        -0.0862 
     13 C13        30.6935   -2.8100   -4.7003 C.ar      12 UNK        -0.0733 
     14 C14        30.8045   -3.2415   -3.3746 C.ar      12 UNK        -0.0832 
     15 C15        30.2923   -3.7929   -5.7907 C.3       12 UNK         0.0240 
     16 S16        28.5223   -3.6822   -6.2079 S.3       12 UNK        -0.2522 
     17 C17        28.5663   -3.2273   -7.9815 C.3       12 UNK        -0.0967 
     18 CA         27.7531   -1.9583   -8.3315 C.3       5 UNK         0.0660 
     19 N          26.3309   -2.1033   -8.0155 N.am      5 UNK        -0.4015 
     20 C          25.3759   -1.2361   -8.3791 C.2       4 UNK         0.4946 
     21 O          25.5848   -0.2569   -9.0945 O.2       4 UNK        -0.5353 
     22 CA         23.9615   -1.4571   -7.8116 C.3       4 UNK         0.0277 
     23 CB         23.0868   -2.1976   -8.8354 C.3       4 UNK        -0.1981 
     24 N          23.9122   -2.1639   -6.5239 N.am      4 UNK        -0.4209 
     25 C          24.5449   -1.7850   -5.4042 C.2       3 UNK         0.4942 
     26 O          25.3099   -0.8192   -5.3453 O.2       3 UNK        -0.5208 
     27 CA         24.3285   -2.6745   -4.1694 C.3       3 UNK         0.0250 
     28 CB         25.1193   -3.9875   -4.2985 C.3       3 UNK        -0.1990 
     29 N          24.7497   -2.0013   -2.9416 N.am      3 UNK        -0.4232 
     30 C          24.0704   -1.0282   -2.3198 C.2       2 UNK         0.4993 
     31 O          22.9591   -0.6346   -2.6793 O.2       2 UNK        -0.5286 
     32 CA         24.7374   -0.4192   -1.0737 C.3       2 UNK         0.0209 
     33 CB         23.7178    0.1361   -0.0602 C.3       2 UNK        -0.1931 
     34 N          25.5937   -1.4076   -0.4129 N.am      2 UNK        -0.4546 
     35 C          26.8100   -1.1747    0.0970 C.2       1 UNK         0.5154 
     36 O          27.3448   -0.0651    0.0926 O.2       1 UNK        -0.5181 
     37 C          28.3808   -0.6864   -7.7238 C.2       5 UNK         0.5014 
     38 O          29.2556   -0.0984   -8.3579 O.2       5 UNK        -0.5248 
     39 N          27.9166   -0.2611   -6.5389 N.am      6 UNK        -0.4434 
     40 CA         28.3665    0.9664   -5.8835 C.3       6 UNK         0.0363 
     41 CB         28.0188    0.9214   -4.3866 C.3       6 UNK        -0.1936 
     42 C          27.7808    2.2171   -6.5534 C.2       6 UNK         0.5081 
     43 O          28.4799    3.2234   -6.6631 O.2       6 UNK        -0.5248 
     44 N          26.5306    2.1225   -7.0300 N.am      7 UNK        -0.4718 
     45 CA         25.8627    3.1678   -7.8117 C.3       7 UNK         0.0273 
     46 CB         24.3593    2.8629   -7.9109 C.3       7 UNK        -0.1935 
     47 C          26.4862    3.3355   -9.2085 C.2       7 UNK         0.5018 
     48 O          26.6596    4.4659   -9.6643 O.2       7 UNK        -0.5186 
     49 N          26.8443    2.2102   -9.8431 N.am      8 UNK        -0.4240 
     50 CA         27.5619    2.1539  -11.1201 C.3       8 UNK         0.0235 
     51 CB         27.4219    0.7375  -11.7029 C.3       8 UNK        -0.2000 
     52 C          29.0518    2.5360  -11.0169 C.2       8 UNK         0.4941 
     53 O          29.6744    2.7692  -12.0536 O.2       8 UNK        -0.5273 
     54 N          29.5968    2.5665   -9.7907 N.am      9 UNK        -0.4262 
     55 CA         31.0069    2.7736   -9.4389 C.3       9 UNK         0.0264 
     56 CB         31.4780    4.1928   -9.8207 C.3       9 UNK        -0.1955 
     57 C          31.9263    1.6601   -9.9818 C.2       9 UNK         0.5031 
     58 O          33.0647    1.9270  -10.3717 O.2       9 UNK        -0.5390 
     59 N          31.4248    0.4195   -9.9668 N.am      10 UNK        -0.4204 
     60 CA         32.1281   -0.8035  -10.3508 C.3       10 UNK         0.0237 
     61 CB         31.1506   -1.7116  -11.1207 C.3       10 UNK        -0.1985 
     62 C          32.6974   -1.4735   -9.0886 C.2       10 UNK         0.4970 
     63 O          32.3967   -2.6347   -8.8075 O.2       10 UNK        -0.4914 
     64 N          33.4738   -0.6980   -8.3258 N.am      11 UNK        -0.4285 
     65 CA         33.9812   -1.0506   -6.9913 C.3       11 UNK         0.1007 
     66 C          35.3262   -1.8317   -7.0008 C.2       11 UNK         0.5703 
     67 N          35.9484   -2.0741   -8.1487 N.am      11 UNK        -0.7361 
     68 O          35.8107   -2.2371   -5.9470 O.2       11 UNK        -0.4986 
     69 C69        34.0483    0.1993   -6.0706 C.3       12 UNK        -0.0947 
     70 S70        32.4848    1.1479   -6.0392 S.3       12 UNK        -0.2240 
     71 C71        31.8733    0.8417   -4.3484 C.3       12 UNK         0.0194 
     72 H72        25.1532   -5.1986    3.2592 H         1 UNK         0.0906 
     73 H73        23.8941   -4.4757    2.2550 H         1 UNK         0.0906 
     74 H74        25.1326   -5.4957    1.5202 H         1 UNK         0.0906 
     75 H75        26.6932   -4.3028    0.4432 H         1 UNK         0.3140 
     76 H76        27.9746   -2.0307    1.6583 H         1 UNK         0.1085 
     77 H77        28.8992   -3.9317   -0.0477 H         1 UNK         0.0836 
     78 H78        28.4889   -2.7466   -1.2551 H         1 UNK         0.0836 
     79 H79        32.4547   -2.6381   -0.6261 H         1 UNK         0.0731 
     80 H80        31.3069   -3.9284   -0.8712 H         1 UNK         0.0731 
     81 H81        31.9648   -0.3895   -1.9559 H         1 UNK         0.1312 
     82 H82        30.9133   -1.1569   -6.0482 H         1 UNK         0.1406 
     83 H83        30.5584   -4.2639   -3.1212 H         1 UNK         0.1631 
     84 H84        30.5029   -4.8141   -5.4696 H         1 UNK         0.0717 
     85 H85        30.9207   -3.6307   -6.6665 H         1 UNK         0.0717 
     86 H86        29.5952   -3.1079   -8.3247 H         1 UNK         0.0934 
     87 H87        28.1770   -4.0743   -8.5487 H         1 UNK         0.0934 
     88 H88        27.8118   -1.8351   -9.4149 H         1 UNK         0.0739 
     89 H89        26.0835   -2.8744   -7.4135 H         1 UNK         0.3093 
     90 H90        23.5296   -0.4676   -7.6484 H         1 UNK         0.0818 
     91 H91        22.0500   -2.2576   -8.5041 H         1 UNK         0.0819 
     92 H92        23.0868   -1.6794   -9.7958 H         1 UNK         0.0819 
     93 H93        23.4437   -3.2128   -9.0134 H         1 UNK         0.0819 
     94 H94        23.3169   -2.9793   -6.4858 H         1 UNK         0.3041 
     95 H95        23.2638   -2.9068   -4.0947 H         1 UNK         0.0784 
     96 H96        24.8420   -4.5358   -5.1997 H         1 UNK         0.0793 
     97 H97        26.1938   -3.8077   -4.3431 H         1 UNK         0.0793 
     98 H98        24.9283   -4.6477   -3.4522 H         1 UNK         0.0793 
     99 H99        25.6788   -2.2140   -2.6113 H         1 UNK         0.3024 
    100 H100       25.3471    0.4110   -1.4383 H         1 UNK         0.1171 
    101 H101       23.0991    0.9144   -0.5089 H         1 UNK         0.0786 
    102 H102       24.2179    0.5799    0.8008 H         1 UNK         0.0786 
    103 H103       23.0503   -0.6447    0.3060 H         1 UNK         0.0786 
    104 H104       25.2230   -2.3456   -0.3442 H         1 UNK         0.2977 
    105 H105       27.1470   -0.7539   -6.0952 H         1 UNK         0.3127 
    106 H106       29.4516    1.0226   -5.9785 H         1 UNK         0.0770 
    107 H107       26.9419    0.9069   -4.2177 H         1 UNK         0.0814 
    108 H108       28.4155    1.7963   -3.8705 H         1 UNK         0.0814 
    109 H109       28.4462    0.0406   -3.9064 H         1 UNK         0.0814 
    110 H110       26.0325    1.2523   -6.9008 H         1 UNK         0.2983 
    111 H111       25.9831    4.1148   -7.2805 H         1 UNK         0.0947 
    112 H112       23.8371    3.6591   -8.4432 H         1 UNK         0.0806 
    113 H113       23.9043    2.7815   -6.9236 H         1 UNK         0.0806 
    114 H114       24.1657    1.9341   -8.4477 H         1 UNK         0.0806 
    115 H115       26.5731    1.3184   -9.4338 H         1 UNK         0.3000 
    116 H116       27.0903    2.8584  -11.8085 H         1 UNK         0.0850 
    117 H117       27.8928    0.6687  -12.6845 H         1 UNK         0.0810 
    118 H118       26.3750    0.4589  -11.8249 H         1 UNK         0.0810 
    119 H119       27.8945   -0.0075  -11.0620 H         1 UNK         0.0810 
    120 H120       28.9931    2.3315   -9.0142 H         1 UNK         0.3040 
    121 H121       31.0537    2.6963   -8.3516 H         1 UNK         0.0766 
    122 H122       32.4754    4.3909   -9.4264 H         1 UNK         0.0812 
    123 H123       30.8122    4.9536   -9.4134 H         1 UNK         0.0812 
    124 H124       31.5242    4.3288  -10.9014 H         1 UNK         0.0812 
    125 H125       30.5265    0.2815   -9.4997 H         1 UNK         0.3205 
    126 H126       32.9659   -0.5680  -11.0102 H         1 UNK         0.0754 
    127 H127       31.6398   -2.6324  -11.4409 H         1 UNK         0.0769 
    128 H128       30.7746   -1.2157  -12.0159 H         1 UNK         0.0769 
    129 H129       30.2916   -1.9904  -10.5095 H         1 UNK         0.0769 
    130 H130       33.6729    0.2413   -8.6397 H         1 UNK         0.2981 
    131 H131       33.2693   -1.7411   -6.5390 H         1 UNK         0.0541 
    132 H132       35.5569   -1.7529   -9.0192 H         1 UNK         0.3459 
    133 H133       36.8167   -2.5857   -8.1420 H         1 UNK         0.3459 
    134 H134       34.3105   -0.0908   -5.0515 H         1 UNK         0.0612 
    135 H135       34.8375    0.8739   -6.4068 H         1 UNK         0.0612 
    136 H136       31.0026    1.4743   -4.1758 H         1 UNK         0.0624 
    137 H137       32.6387    1.1819   -3.6491 H         1 UNK         0.0624 
@<TRIPOS>BOND
     1    1    2 1    
     2    1   72 1    
     3    1   73 1    
     4    1   74 1    
     5    2    3 2    
     6    2    4 am   BACKBONE|DICT|INTERRES
     7    4    5 1    
     8    4   75 1    
     9    5    6 1    
    10    5   35 1    
    11    5   76 1    
    12    6    7 1    
    13    6   77 1    
    14    6   78 1    
    15    7    8 1    
    16    8    9 1    
    17    8   79 1    
    18    8   80 1    
    19    9   10 ar   
    20    9   14 ar   
    21   10   11 ar   
    22   10   81 1    
    23   11   12 ar   
    24   11   71 1    
    25   12   13 ar   
    26   12   82 1    
    27   13   14 ar   
    28   13   15 1    
    29   14   83 1    
    30   15   16 1    
    31   15   84 1    
    32   15   85 1    
    33   16   17 1    
    34   17   18 1    
    35   17   86 1    
    36   17   87 1    
    37   18   19 1    
    38   18   37 1    
    39   18   88 1    
    40   19   20 am   BACKBONE|DICT|INTERRES
    41   19   89 1    
    42   20   21 2    
    43   20   22 1    
    44   22   23 1    
    45   22   24 1    
    46   22   90 1    
    47   23   91 1    
    48   23   92 1    
    49   23   93 1    
    50   24   25 am   BACKBONE|DICT|INTERRES
    51   24   94 1    
    52   25   26 2    
    53   25   27 1    
    54   27   28 1    
    55   27   29 1    
    56   27   95 1    
    57   28   96 1    
    58   28   97 1    
    59   28   98 1    
    60   29   30 am   BACKBONE|DICT|INTERRES
    61   29   99 1    
    62   30   31 2    
    63   30   32 1    
    64   32   33 1    
    65   32   34 1    
    66   32  100 1    
    67   33  101 1    
    68   33  102 1    
    69   33  103 1    
    70   34   35 am   BACKBONE|DICT|INTERRES
    71   34  104 1    
    72   35   36 2    
    73   37   38 2    
    74   37   39 am   BACKBONE|DICT|INTERRES
    75   39   40 1    
    76   39  105 1    
    77   40   41 1    
    78   40   42 1    
    79   40  106 1    
    80   41  107 1    
    81   41  108 1    
    82   41  109 1    
    83   42   43 2    
    84   42   44 am   BACKBONE|DICT|INTERRES
    85   44   45 1    
    86   44  110 1    
    87   45   46 1    
    88   45   47 1    
    89   45  111 1    
    90   46  112 1    
    91   46  113 1    
    92   46  114 1    
    93   47   48 2    
    94   47   49 am   BACKBONE|DICT|INTERRES
    95   49   50 1    
    96   49  115 1    
    97   50   51 1    
    98   50   52 1    
    99   50  116 1    
   100   51  117 1    
   101   51  118 1    
   102   51  119 1    
   103   52   53 2    
   104   52   54 am   BACKBONE|DICT|INTERRES
   105   54   55 1    
   106   54  120 1    
   107   55   56 1    
   108   55   57 1    
   109   55  121 1    
   110   56  122 1    
   111   56  123 1    
   112   56  124 1    
   113   57   58 2    
   114   57   59 am   BACKBONE|DICT|INTERRES
   115   59   60 1    
   116   59  125 1    
   117   60   61 1    
   118   60   62 1    
   119   60  126 1    
   120   61  127 1    
   121   61  128 1    
   122   61  129 1    
   123   62   63 2    
   124   62   64 am   BACKBONE|DICT|INTERRES
   125   64   65 1    
   126   64  130 1    
   127   65   66 1    
   128   65   69 1    
   129   65  131 1    
   130   66   67 am   BACKBONE|DICT|INTERRES
   131   66   68 2    
   132   67  132 1    
   133   67  133 1    
   134   69   70 1    
   135   69  134 1    
   136   69  135 1    
   137   70   71 1    
   138   71  136 1    
   139   71  137 1    
@<TRIPOS>SUBSTRUCTURE
     1 UNK         1 GROUP             0       ****    0 ROOT    
