@<TRIPOS>MOLECULE
3R137
137   139    1
SMALL
USER_CHARGES


@<TRIPOS>ATOM
      1 CA         28.9976    0.9081    2.4961 C.3       0 UNK        -0.2020 
      2 C          28.4390    0.6320    1.1080 C.2       0 UNK         0.4855 
      3 O          28.0155    1.5632    0.4221 O.2       0 UNK        -0.5197 
      4 N          28.4435   -0.6380    0.6856 N.am      1 UNK        -0.4892 
      5 CA         27.9081   -1.0961   -0.6022 C.3       1 UNK         0.0835 
      6 C6         28.3852   -2.5299   -0.9508 C.3       12 UNK        -0.0855 
      7 S7         30.2037   -2.6630   -0.9903 S.3       12 UNK        -0.2931 
      8 C8         30.4549   -4.1799   -1.9744 C.3       12 UNK         0.0378 
      9 C9         30.5791   -3.9306   -3.4761 C.ar      12 UNK        -0.0802 
     10 C10        31.4002   -2.9081   -3.9646 C.ar      12 UNK        -0.0944 
     11 C11        31.5732   -2.7239   -5.3387 C.ar      12 UNK        -0.0787 
     12 C12        30.9378   -3.5920   -6.2323 C.ar      12 UNK        -0.0862 
     13 C13        30.1206   -4.6267   -5.7630 C.ar      12 UNK        -0.0733 
     14 C14        29.9358   -4.7800   -4.3837 C.ar      12 UNK        -0.0832 
     15 C15        29.5159   -5.6413   -6.7307 C.3       12 UNK         0.0240 
     16 S16        28.6239   -4.8936   -8.1340 S.3       12 UNK        -0.2522 
     17 C17        27.0412   -4.4183   -7.3626 C.3       12 UNK        -0.0967 
     18 CA         26.4508   -3.1275   -7.9966 C.3       5 UNK         0.0660 
     19 N          25.0166   -2.9582   -7.7625 N.am      5 UNK        -0.4015 
     20 C          24.4097   -2.8431   -6.5770 C.2       4 UNK         0.4946 
     21 O          24.9938   -2.8966   -5.4917 O.2       4 UNK        -0.5353 
     22 CA         22.8852   -2.6643   -6.6077 C.3       4 UNK         0.0277 
     23 CB         22.1799   -3.9349   -6.1056 C.3       4 UNK        -0.1981 
     24 N          22.5127   -1.5377   -5.7592 N.am      4 UNK        -0.4209 
     25 C          22.6163   -0.2501   -6.1157 C.2       3 UNK         0.4942 
     26 O          22.8771    0.1275   -7.2583 O.2       3 UNK        -0.5208 
     27 CA         22.4195    0.7911   -4.9974 C.3       3 UNK         0.0250 
     28 CB         20.9477    1.2266   -4.9158 C.3       3 UNK        -0.1990 
     29 N          22.8607    0.3014   -3.6867 N.am      3 UNK        -0.4232 
     30 C          24.1314    0.0038   -3.3802 C.2       2 UNK         0.4993 
     31 O          25.0918    0.2258   -4.1252 O.2       2 UNK        -0.5286 
     32 CA         24.3517   -0.6999   -2.0352 C.3       2 UNK         0.0209 
     33 CB         23.7338   -2.1147   -2.0458 C.3       2 UNK        -0.1931 
     34 N          25.7870   -0.7861   -1.7888 N.am      2 UNK        -0.4546 
     35 C          26.3666   -1.0275   -0.6097 C.2       1 UNK         0.5154 
     36 O          25.7356   -1.2259    0.4328 O.2       1 UNK        -0.5181 
     37 C          27.2499   -1.8586   -7.6438 C.2       5 UNK         0.5014 
     38 O          27.6310   -1.1248   -8.5557 O.2       5 UNK        -0.5248 
     39 N          27.5123   -1.6382   -6.3483 N.am      6 UNK        -0.4434 
     40 CA         28.5219   -0.7090   -5.8320 C.3       6 UNK         0.0363 
     41 CB         28.5641   -0.7758   -4.3012 C.3       6 UNK        -0.1936 
     42 C          28.3733    0.7404   -6.3080 C.2       6 UNK         0.5081 
     43 O          29.3728    1.3463   -6.6917 O.2       6 UNK        -0.5248 
     44 N          27.1364    1.2531   -6.3250 N.am      7 UNK        -0.4718 
     45 CA         26.8121    2.6022   -6.8005 C.3       7 UNK         0.0273 
     46 CB         25.3406    2.9083   -6.4872 C.3       7 UNK        -0.1935 
     47 C          27.1055    2.8406   -8.2953 C.2       7 UNK         0.5018 
     48 O          27.3189    3.9908   -8.6809 O.2       7 UNK        -0.5186 
     49 N          27.1136    1.7709   -9.1026 N.am      8 UNK        -0.4240 
     50 CA         27.4596    1.8090  -10.5238 C.3       8 UNK         0.0235 
     51 CB         26.5362    0.8551  -11.3005 C.3       8 UNK        -0.2000 
     52 C          28.9332    1.4379  -10.7473 C.2       8 UNK         0.4941 
     53 O          29.6091    2.0985  -11.5367 O.2       8 UNK        -0.5273 
     54 N          29.3989    0.3832  -10.0640 N.am      9 UNK        -0.4262 
     55 CA         30.7460   -0.1748  -10.1864 C.3       9 UNK         0.0264 
     56 CB         30.7771   -1.5628   -9.5272 C.3       9 UNK        -0.1955 
     57 C          31.8484    0.7210   -9.6010 C.2       9 UNK         0.5031 
     58 O          32.9591    0.7187  -10.1349 O.2       9 UNK        -0.5390 
     59 N          31.5427    1.4438   -8.5125 N.am      10 UNK        -0.4204 
     60 CA         32.3913    2.3689   -7.7464 C.3       10 UNK         0.0237 
     61 CB         32.8573    3.5556   -8.6124 C.3       10 UNK        -0.1985 
     62 C          33.5782    1.7168   -7.0117 C.2       10 UNK         0.4970 
     63 O          33.8181    2.0602   -5.8540 O.2       10 UNK        -0.4914 
     64 N          34.2938    0.8066   -7.6841 N.am      11 UNK        -0.4285 
     65 CA         35.4916    0.0913   -7.2079 C.3       11 UNK         0.1007 
     66 C          36.7321    1.0055   -6.9564 C.2       11 UNK         0.5703 
     67 N          36.7841    2.2141   -7.5050 N.am      11 UNK        -0.7361 
     68 O          37.6814    0.6069   -6.2851 O.2       11 UNK        -0.4986 
     69 C69        35.1937   -0.8697   -6.0196 C.3       12 UNK        -0.0947 
     70 S70        34.0472   -2.2204   -6.4590 S.3       12 UNK        -0.2240 
     71 C71        32.4538   -1.5916   -5.8481 C.3       12 UNK         0.0194 
     72 H72        29.8333    1.6045    2.4327 H         1 UNK         0.0906 
     73 H73        28.2294    1.3538    3.1274 H         1 UNK         0.0906 
     74 H74        29.3505   -0.0012    2.9823 H         1 UNK         0.0906 
     75 H75        28.7978   -1.3655    1.2900 H         1 UNK         0.3140 
     76 H76        28.2802   -0.4142   -1.3700 H         1 UNK         0.1085 
     77 H77        28.0048   -3.2509   -0.2242 H         1 UNK         0.0836 
     78 H78        27.9920   -2.8394   -1.9211 H         1 UNK         0.0836 
     79 H79        29.6514   -4.8858   -1.7582 H         1 UNK         0.0731 
     80 H80        31.3761   -4.6562   -1.6365 H         1 UNK         0.0731 
     81 H81        31.9136   -2.2570   -3.2705 H         1 UNK         0.1312 
     82 H82        31.0998   -3.4784   -7.2948 H         1 UNK         0.1406 
     83 H83        29.3252   -5.5925   -4.0134 H         1 UNK         0.1631 
     84 H84        28.8452   -6.3283   -6.2123 H         1 UNK         0.0717 
     85 H85        30.3266   -6.2527   -7.1291 H         1 UNK         0.0717 
     86 H86        26.3504   -5.2501   -7.5082 H         1 UNK         0.0934 
     87 H87        27.1628   -4.3223   -6.2823 H         1 UNK         0.0934 
     88 H88        26.5310   -3.2404   -9.0795 H         1 UNK         0.0739 
     89 H89        24.4535   -2.8794   -8.5978 H         1 UNK         0.3093 
     90 H90        22.5559   -2.4659   -7.6302 H         1 UNK         0.0818 
     91 H91        21.0959   -3.8211   -6.1248 H         1 UNK         0.0819 
     92 H92        22.4269   -4.7915   -6.7341 H         1 UNK         0.0819 
     93 H93        22.4734   -4.1851   -5.0849 H         1 UNK         0.0819 
     94 H94        22.3389   -1.7487   -4.7885 H         1 UNK         0.3041 
     95 H95        23.0187    1.6670   -5.2487 H         1 UNK         0.0784 
     96 H96        20.6043    1.6177   -5.8747 H         1 UNK         0.0793 
     97 H97        20.2925    0.3962   -4.6494 H         1 UNK         0.0793 
     98 H98        20.8077    2.0165   -4.1776 H         1 UNK         0.0793 
     99 H99        22.1364    0.1104   -3.0087 H         1 UNK         0.3024 
    100 H100       23.8907   -0.0955   -1.2506 H         1 UNK         0.1171 
    101 H101       22.6565   -2.0805   -2.2097 H         1 UNK         0.0786 
    102 H102       24.1662   -2.7336   -2.8335 H         1 UNK         0.0786 
    103 H103       23.8910   -2.6285   -1.0975 H         1 UNK         0.0786 
    104 H104       26.3418   -0.5853   -2.6114 H         1 UNK         0.2977 
    105 H105       27.0303   -2.2214   -5.6738 H         1 UNK         0.3127 
    106 H106       29.4811   -1.0645   -6.2074 H         1 UNK         0.0770 
    107 H107       28.6881   -1.8004   -3.9547 H         1 UNK         0.0814 
    108 H108       27.6543   -0.3733   -3.8618 H         1 UNK         0.0814 
    109 H109       29.4020   -0.1974   -3.9096 H         1 UNK         0.0814 
    110 H110       26.3766    0.6993   -5.9454 H         1 UNK         0.2983 
    111 H111       27.4323    3.3042   -6.2388 H         1 UNK         0.0947 
    112 H112       25.0767    3.9214   -6.7936 H         1 UNK         0.0806 
    113 H113       25.1411    2.8314   -5.4183 H         1 UNK         0.0806 
    114 H114       24.6710    2.2243   -7.0092 H         1 UNK         0.0806 
    115 H115       26.9820    0.8536   -8.6913 H         1 UNK         0.3000 
    116 H116       27.3055    2.8157  -10.9187 H         1 UNK         0.0850 
    117 H117       26.7690    0.8695  -12.3661 H         1 UNK         0.0810 
    118 H118       25.4906    1.1444  -11.1936 H         1 UNK         0.0810 
    119 H119       26.6335   -0.1762  -10.9592 H         1 UNK         0.0810 
    120 H120       28.7524   -0.1293   -9.4640 H         1 UNK         0.3040 
    121 H121       30.9607   -0.2999  -11.2498 H         1 UNK         0.0766 
    122 H122       31.7778   -1.9963   -9.5603 H         1 UNK         0.0812 
    123 H123       30.1049   -2.2566  -10.0327 H         1 UNK         0.0812 
    124 H124       30.4727   -1.5127   -8.4824 H         1 UNK         0.0812 
    125 H125       30.6143    1.3254   -8.1100 H         1 UNK         0.3205 
    126 H126       31.7393    2.7742   -6.9708 H         1 UNK         0.0754 
    127 H127       33.4002    4.2863   -8.0113 H         1 UNK         0.0769 
    128 H128       32.0089    4.0721   -9.0617 H         1 UNK         0.0769 
    129 H129       33.5212    3.2409   -9.4179 H         1 UNK         0.0769 
    130 H130       34.0154    0.6242   -8.6459 H         1 UNK         0.2981 
    131 H131       35.7975   -0.5320   -8.0485 H         1 UNK         0.0541 
    132 H132       37.5941    2.7927   -7.3474 H         1 UNK         0.3459 
    133 H133       36.0245    2.5502   -8.0740 H         1 UNK         0.3459 
    134 H134       34.8268   -0.3225   -5.1509 H         1 UNK         0.0612 
    135 H135       36.1116   -1.3584   -5.6892 H         1 UNK         0.0612 
    136 H136       31.9500   -1.0566   -6.6529 H         1 UNK         0.0624 
    137 H137       32.6152   -0.8607   -5.0548 H         1 UNK         0.0624 
@<TRIPOS>BOND
     1    1    2 1    
     2    1   72 1    
     3    1   73 1    
     4    1   74 1    
     5    2    3 2    
     6    2    4 am   BACKBONE|DICT|INTERRES
     7    4    5 1    
     8    4   75 1    
     9    5    6 1    
    10    5   35 1    
    11    5   76 1    
    12    6    7 1    
    13    6   77 1    
    14    6   78 1    
    15    7    8 1    
    16    8    9 1    
    17    8   79 1    
    18    8   80 1    
    19    9   10 ar   
    20    9   14 ar   
    21   10   11 ar   
    22   10   81 1    
    23   11   12 ar   
    24   11   71 1    
    25   12   13 ar   
    26   12   82 1    
    27   13   14 ar   
    28   13   15 1    
    29   14   83 1    
    30   15   16 1    
    31   15   84 1    
    32   15   85 1    
    33   16   17 1    
    34   17   18 1    
    35   17   86 1    
    36   17   87 1    
    37   18   19 1    
    38   18   37 1    
    39   18   88 1    
    40   19   20 am   BACKBONE|DICT|INTERRES
    41   19   89 1    
    42   20   21 2    
    43   20   22 1    
    44   22   23 1    
    45   22   24 1    
    46   22   90 1    
    47   23   91 1    
    48   23   92 1    
    49   23   93 1    
    50   24   25 am   BACKBONE|DICT|INTERRES
    51   24   94 1    
    52   25   26 2    
    53   25   27 1    
    54   27   28 1    
    55   27   29 1    
    56   27   95 1    
    57   28   96 1    
    58   28   97 1    
    59   28   98 1    
    60   29   30 am   BACKBONE|DICT|INTERRES
    61   29   99 1    
    62   30   31 2    
    63   30   32 1    
    64   32   33 1    
    65   32   34 1    
    66   32  100 1    
    67   33  101 1    
    68   33  102 1    
    69   33  103 1    
    70   34   35 am   BACKBONE|DICT|INTERRES
    71   34  104 1    
    72   35   36 2    
    73   37   38 2    
    74   37   39 am   BACKBONE|DICT|INTERRES
    75   39   40 1    
    76   39  105 1    
    77   40   41 1    
    78   40   42 1    
    79   40  106 1    
    80   41  107 1    
    81   41  108 1    
    82   41  109 1    
    83   42   43 2    
    84   42   44 am   BACKBONE|DICT|INTERRES
    85   44   45 1    
    86   44  110 1    
    87   45   46 1    
    88   45   47 1    
    89   45  111 1    
    90   46  112 1    
    91   46  113 1    
    92   46  114 1    
    93   47   48 2    
    94   47   49 am   BACKBONE|DICT|INTERRES
    95   49   50 1    
    96   49  115 1    
    97   50   51 1    
    98   50   52 1    
    99   50  116 1    
   100   51  117 1    
   101   51  118 1    
   102   51  119 1    
   103   52   53 2    
   104   52   54 am   BACKBONE|DICT|INTERRES
   105   54   55 1    
   106   54  120 1    
   107   55   56 1    
   108   55   57 1    
   109   55  121 1    
   110   56  122 1    
   111   56  123 1    
   112   56  124 1    
   113   57   58 2    
   114   57   59 am   BACKBONE|DICT|INTERRES
   115   59   60 1    
   116   59  125 1    
   117   60   61 1    
   118   60   62 1    
   119   60  126 1    
   120   61  127 1    
   121   61  128 1    
   122   61  129 1    
   123   62   63 2    
   124   62   64 am   BACKBONE|DICT|INTERRES
   125   64   65 1    
   126   64  130 1    
   127   65   66 1    
   128   65   69 1    
   129   65  131 1    
   130   66   67 am   BACKBONE|DICT|INTERRES
   131   66   68 2    
   132   67  132 1    
   133   67  133 1    
   134   69   70 1    
   135   69  134 1    
   136   69  135 1    
   137   70   71 1    
   138   71  136 1    
   139   71  137 1    
@<TRIPOS>SUBSTRUCTURE
     1 UNK         1 GROUP             0       ****    0 ROOT    
