@<TRIPOS>MOLECULE
3R137
137   139    1
SMALL
USER_CHARGES


@<TRIPOS>ATOM
      1 CA         32.4736   -6.9649   -4.5121 C.3       0 UNK        -0.2020 
      2 C          31.7427   -6.9256   -3.1787 C.2       0 UNK         0.4855 
      3 O          31.3996   -7.9768   -2.6370 O.2       0 UNK        -0.5197 
      4 N          31.4945   -5.7213   -2.6473 N.am      1 UNK        -0.4892 
      5 CA         30.7497   -5.4989   -1.3969 C.3       1 UNK         0.0835 
      6 C6         31.0178   -4.0865   -0.8119 C.3       12 UNK        -0.0855 
      7 S7         30.4360   -2.7335   -1.8888 S.3       12 UNK        -0.2931 
      8 C8         30.9014   -1.2600   -0.9346 C.3       12 UNK         0.0378 
      9 C9         30.4147   -0.0150   -1.6579 C.ar      12 UNK        -0.0802 
     10 C10        31.1926    0.5578   -2.6662 C.ar      12 UNK        -0.0944 
     11 C11        30.7059    1.6276   -3.4233 C.ar      12 UNK        -0.0787 
     12 C12        29.4540    2.1721   -3.1127 C.ar      12 UNK        -0.0862 
     13 C13        28.6898    1.6419   -2.0672 C.ar      12 UNK        -0.0733 
     14 C14        29.1681    0.5378   -1.3548 C.ar      12 UNK        -0.0832 
     15 C15        27.3539    2.2621   -1.6887 C.3       12 UNK         0.0240 
     16 S16        25.9875    1.5841   -2.6831 S.3       12 UNK        -0.2522 
     17 C17        25.5905    2.9643   -3.8123 C.3       12 UNK        -0.0967 
     18 CA         25.9360    2.6621   -5.2903 C.3       5 UNK         0.0660 
     19 N          25.3084    1.4177   -5.7553 N.am      5 UNK        -0.4015 
     20 C          25.4419    0.8678   -6.9686 C.2       4 UNK         0.4946 
     21 O          26.0323    1.4003   -7.9107 O.2       4 UNK        -0.5353 
     22 CA         24.8991   -0.5559   -7.1220 C.3       4 UNK         0.0277 
     23 CB         24.4709   -0.8694   -8.5667 C.3       4 UNK        -0.1981 
     24 N          25.9874   -1.4393   -6.7112 N.am      4 UNK        -0.4209 
     25 C          26.0813   -1.9882   -5.4947 C.2       3 UNK         0.4942 
     26 O          25.1632   -2.0211   -4.6712 O.2       3 UNK        -0.5208 
     27 CA         27.4837   -2.4672   -5.1034 C.3       3 UNK         0.0250 
     28 CB         28.2824   -1.2702   -4.5649 C.3       3 UNK        -0.1990 
     29 N          27.4891   -3.5288   -4.0979 N.am      3 UNK        -0.4232 
     30 C          27.0644   -4.7833   -4.2994 C.2       2 UNK         0.4993 
     31 O          26.5756   -5.1827   -5.3580 O.2       2 UNK        -0.5286 
     32 CA         27.3136   -5.7638   -3.1428 C.3       2 UNK         0.0209 
     33 CB         26.9444   -7.2216   -3.4816 C.3       2 UNK        -0.1931 
     34 N          28.7258   -5.6831   -2.7773 N.am      2 UNK        -0.4546 
     35 C          29.2331   -5.7733   -1.5423 C.2       1 UNK         0.5154 
     36 O          28.5602   -6.0350   -0.5438 O.2       1 UNK        -0.5181 
     37 C          25.6178    3.8960   -6.1605 C.2       5 UNK         0.5014 
     38 O          26.4747    4.7695   -6.2956 O.2       5 UNK        -0.5248 
     39 N          24.4080    3.9444   -6.7385 N.am      6 UNK        -0.4434 
     40 CA         23.9571    5.0124   -7.6362 C.3       6 UNK         0.0363 
     41 CB         22.4418    4.8838   -7.8610 C.3       6 UNK        -0.1936 
     42 C          24.7012    5.0289   -8.9839 C.2       6 UNK         0.5081 
     43 O          24.9066    6.1053   -9.5455 O.2       6 UNK        -0.5248 
     44 N          25.0941    3.8452   -9.4725 N.am      7 UNK        -0.4718 
     45 CA         25.8997    3.6741  -10.6841 C.3       7 UNK         0.0273 
     46 CB         25.4719    2.3705  -11.3797 C.3       7 UNK        -0.1935 
     47 C          27.4066    3.6349  -10.3767 C.2       7 UNK         0.5018 
     48 O          28.2072    3.8754  -11.2808 O.2       7 UNK        -0.5186 
     49 N          27.7529    3.2961   -9.1253 N.am      8 UNK        -0.4240 
     50 CA         29.0826    2.9442   -8.6180 C.3       8 UNK         0.0235 
     51 CB         30.0512    4.1438   -8.6782 C.3       8 UNK        -0.2000 
     52 C          29.6250    1.6751   -9.3026 C.2       8 UNK         0.4941 
     53 O          30.8050    1.6157   -9.6552 O.2       8 UNK        -0.5273 
     54 N          28.7380    0.6893   -9.5014 N.am      9 UNK        -0.4262 
     55 CA         29.0736   -0.6066  -10.0880 C.3       9 UNK         0.0264 
     56 CB         27.8405   -1.1921  -10.7928 C.3       9 UNK        -0.1955 
     57 C          29.5654   -1.5615   -8.9941 C.2       9 UNK         0.5031 
     58 O          29.0412   -1.5256   -7.8771 O.2       9 UNK        -0.5390 
     59 N          30.5280   -2.4179   -9.3599 N.am      10 UNK        -0.4204 
     60 CA         31.2300   -3.4096   -8.5368 C.3       10 UNK         0.0237 
     61 CB         30.2730   -4.4627   -7.9377 C.3       10 UNK        -0.1985 
     62 C          32.1352   -2.7698   -7.4719 C.2       10 UNK         0.4970 
     63 O          33.3568   -2.8660   -7.5962 O.2       10 UNK        -0.4914 
     64 N          31.5255   -2.1316   -6.4656 N.am      11 UNK        -0.4285 
     65 CA         32.1823   -1.5060   -5.3068 C.3       11 UNK         0.1007 
     66 C          33.1102   -2.4850   -4.5220 C.2       11 UNK         0.5703 
     67 N          34.2577   -2.0486   -4.0181 N.am      11 UNK        -0.7361 
     68 O          32.7566   -3.6432   -4.3085 O.2       11 UNK        -0.4986 
     69 C69        32.7984   -0.1175   -5.6527 C.3       12 UNK        -0.0947 
     70 S70        31.5138    1.1231   -6.0458 S.3       12 UNK        -0.2240 
     71 C71        31.5347    2.1973   -4.5687 C.3       12 UNK         0.0194 
     72 H72        32.2294   -6.0985   -5.1260 H         1 UNK         0.0906 
     73 H73        33.5510   -6.9812   -4.3509 H         1 UNK         0.0906 
     74 H74        32.1978   -7.8576   -5.0730 H         1 UNK         0.0906 
     75 H75        31.8254   -4.8863   -3.1281 H         1 UNK         0.3140 
     76 H76        31.1178   -6.2240   -0.6674 H         1 UNK         0.1085 
     77 H77        32.0875   -3.9566   -0.6396 H         1 UNK         0.0836 
     78 H78        30.5430   -3.9853    0.1661 H         1 UNK         0.0836 
     79 H79        31.9851   -1.2293   -0.8106 H         1 UNK         0.0731 
     80 H80        30.4696   -1.3160    0.0659 H         1 UNK         0.0731 
     81 H81        32.1632    0.1387   -2.8850 H         1 UNK         0.1312 
     82 H82        29.0748    3.0116   -3.6792 H         1 UNK         0.1406 
     83 H83        28.5649    0.1016   -0.5699 H         1 UNK         0.1631 
     84 H84        27.4089    3.3477   -1.7727 H         1 UNK         0.0717 
     85 H85        27.1403    2.0629   -0.6373 H         1 UNK         0.0717 
     86 H86        24.5238    3.1738   -3.7079 H         1 UNK         0.0934 
     87 H87        26.0998    3.8716   -3.4828 H         1 UNK         0.0934 
     88 H88        27.0147    2.5033   -5.3572 H         1 UNK         0.0739 
     89 H89        24.8517    0.8757   -5.0346 H         1 UNK         0.3093 
     90 H90        24.0255   -0.6795   -6.4781 H         1 UNK         0.0818 
     91 H91        25.2517   -0.6459   -9.2904 H         1 UNK         0.0819 
     92 H92        24.1966   -1.9182   -8.6808 H         1 UNK         0.0819 
     93 H93        23.6010   -0.2739   -8.8458 H         1 UNK         0.0819 
     94 H94        26.8271   -1.4089   -7.2797 H         1 UNK         0.3041 
     95 H95        27.9781   -2.8616   -5.9907 H         1 UNK         0.0784 
     96 H96        28.4077   -0.4965   -5.3240 H         1 UNK         0.0793 
     97 H97        27.7905   -0.8088   -3.7077 H         1 UNK         0.0793 
     98 H98        29.2742   -1.5725   -4.2472 H         1 UNK         0.0793 
     99 H99        27.8765   -3.2886   -3.1963 H         1 UNK         0.3024 
    100 H100       26.6945   -5.4323   -2.3057 H         1 UNK         0.1171 
    101 H101       27.1106   -7.8800   -2.6289 H         1 UNK         0.0786 
    102 H102       25.8919   -7.3051   -3.7554 H         1 UNK         0.0786 
    103 H103       27.5333   -7.6015   -4.3173 H         1 UNK         0.0786 
    104 H104       29.3637   -5.4441   -3.5243 H         1 UNK         0.2977 
    105 H105       23.7617    3.1880   -6.5661 H         1 UNK         0.3127 
    106 H106       24.1487    5.9687   -7.1442 H         1 UNK         0.0770 
    107 H107       22.1812    3.9369   -8.3357 H         1 UNK         0.0814 
    108 H108       22.0753    5.6830   -8.5070 H         1 UNK         0.0814 
    109 H109       21.8930    4.9527   -6.9216 H         1 UNK         0.0814 
    110 H110       24.9167    3.0099   -8.9286 H         1 UNK         0.2983 
    111 H111       25.7219    4.5045  -11.3713 H         1 UNK         0.0947 
    112 H112       26.0421    2.2108  -12.2960 H         1 UNK         0.0806 
    113 H113       24.4175    2.3959  -11.6553 H         1 UNK         0.0806 
    114 H114       25.6309    1.5003  -10.7415 H         1 UNK         0.0806 
    115 H115       26.9903    3.0471   -8.5052 H         1 UNK         0.3000 
    116 H116       28.9472    2.6844   -7.5666 H         1 UNK         0.0850 
    117 H117       30.9911    3.9065   -8.1781 H         1 UNK         0.0810 
    118 H118       29.6299    5.0170   -8.1801 H         1 UNK         0.0810 
    119 H119       30.2913    4.4231   -9.7043 H         1 UNK         0.0810 
    120 H120       27.8049    0.7963   -9.1216 H         1 UNK         0.3040 
    121 H121       29.8593   -0.4662  -10.8339 H         1 UNK         0.0766 
    122 H122       27.3634   -0.4620  -11.4469 H         1 UNK         0.0812 
    123 H123       27.0998   -1.5490  -10.0790 H         1 UNK         0.0812 
    124 H124       28.1204   -2.0463  -11.4103 H         1 UNK         0.0812 
    125 H125       30.8760   -2.3415  -10.3060 H         1 UNK         0.3205 
    126 H126       31.8907   -3.9414   -9.2236 H         1 UNK         0.0754 
    127 H127       29.5609   -4.0315   -7.2359 H         1 UNK         0.0769 
    128 H128       30.8307   -5.2289   -7.3977 H         1 UNK         0.0769 
    129 H129       29.7039   -4.9668   -8.7187 H         1 UNK         0.0769 
    130 H130       30.5178   -2.0377   -6.5171 H         1 UNK         0.2981 
    131 H131       31.3802   -1.3243   -4.5995 H         1 UNK         0.0541 
    132 H132       34.5744   -1.1060   -4.1752 H         1 UNK         0.3459 
    133 H133       34.8317   -2.6900   -3.4945 H         1 UNK         0.3459 
    134 H134       33.4029    0.2736   -4.8352 H         1 UNK         0.0612 
    135 H135       33.4727   -0.2022   -6.5061 H         1 UNK         0.0612 
    136 H136       31.1469    3.1752   -4.8579 H         1 UNK         0.0624 
    137 H137       32.5609    2.3682   -4.2411 H         1 UNK         0.0624 
@<TRIPOS>BOND
     1    1    2 1    
     2    1   72 1    
     3    1   73 1    
     4    1   74 1    
     5    2    3 2    
     6    2    4 am   BACKBONE|DICT|INTERRES
     7    4    5 1    
     8    4   75 1    
     9    5    6 1    
    10    5   35 1    
    11    5   76 1    
    12    6    7 1    
    13    6   77 1    
    14    6   78 1    
    15    7    8 1    
    16    8    9 1    
    17    8   79 1    
    18    8   80 1    
    19    9   10 ar   
    20    9   14 ar   
    21   10   11 ar   
    22   10   81 1    
    23   11   12 ar   
    24   11   71 1    
    25   12   13 ar   
    26   12   82 1    
    27   13   14 ar   
    28   13   15 1    
    29   14   83 1    
    30   15   16 1    
    31   15   84 1    
    32   15   85 1    
    33   16   17 1    
    34   17   18 1    
    35   17   86 1    
    36   17   87 1    
    37   18   19 1    
    38   18   37 1    
    39   18   88 1    
    40   19   20 am   BACKBONE|DICT|INTERRES
    41   19   89 1    
    42   20   21 2    
    43   20   22 1    
    44   22   23 1    
    45   22   24 1    
    46   22   90 1    
    47   23   91 1    
    48   23   92 1    
    49   23   93 1    
    50   24   25 am   BACKBONE|DICT|INTERRES
    51   24   94 1    
    52   25   26 2    
    53   25   27 1    
    54   27   28 1    
    55   27   29 1    
    56   27   95 1    
    57   28   96 1    
    58   28   97 1    
    59   28   98 1    
    60   29   30 am   BACKBONE|DICT|INTERRES
    61   29   99 1    
    62   30   31 2    
    63   30   32 1    
    64   32   33 1    
    65   32   34 1    
    66   32  100 1    
    67   33  101 1    
    68   33  102 1    
    69   33  103 1    
    70   34   35 am   BACKBONE|DICT|INTERRES
    71   34  104 1    
    72   35   36 2    
    73   37   38 2    
    74   37   39 am   BACKBONE|DICT|INTERRES
    75   39   40 1    
    76   39  105 1    
    77   40   41 1    
    78   40   42 1    
    79   40  106 1    
    80   41  107 1    
    81   41  108 1    
    82   41  109 1    
    83   42   43 2    
    84   42   44 am   BACKBONE|DICT|INTERRES
    85   44   45 1    
    86   44  110 1    
    87   45   46 1    
    88   45   47 1    
    89   45  111 1    
    90   46  112 1    
    91   46  113 1    
    92   46  114 1    
    93   47   48 2    
    94   47   49 am   BACKBONE|DICT|INTERRES
    95   49   50 1    
    96   49  115 1    
    97   50   51 1    
    98   50   52 1    
    99   50  116 1    
   100   51  117 1    
   101   51  118 1    
   102   51  119 1    
   103   52   53 2    
   104   52   54 am   BACKBONE|DICT|INTERRES
   105   54   55 1    
   106   54  120 1    
   107   55   56 1    
   108   55   57 1    
   109   55  121 1    
   110   56  122 1    
   111   56  123 1    
   112   56  124 1    
   113   57   58 2    
   114   57   59 am   BACKBONE|DICT|INTERRES
   115   59   60 1    
   116   59  125 1    
   117   60   61 1    
   118   60   62 1    
   119   60  126 1    
   120   61  127 1    
   121   61  128 1    
   122   61  129 1    
   123   62   63 2    
   124   62   64 am   BACKBONE|DICT|INTERRES
   125   64   65 1    
   126   64  130 1    
   127   65   66 1    
   128   65   69 1    
   129   65  131 1    
   130   66   67 am   BACKBONE|DICT|INTERRES
   131   66   68 2    
   132   67  132 1    
   133   67  133 1    
   134   69   70 1    
   135   69  134 1    
   136   69  135 1    
   137   70   71 1    
   138   71  136 1    
   139   71  137 1    
@<TRIPOS>SUBSTRUCTURE
     1 UNK         1 GROUP             0       ****    0 ROOT    
