@<TRIPOS>MOLECULE
3R137
137   139    1
SMALL
USER_CHARGES


@<TRIPOS>ATOM
      1 CA         30.5412    0.3091   -1.3167 C.3       0 UNK        -0.2020 
      2 C          29.6867   -0.8691   -1.7576 C.2       0 UNK         0.4855 
      3 O          29.1593   -0.8564   -2.8678 O.2       0 UNK        -0.5197 
      4 N          29.5403   -1.8858   -0.8982 N.am      1 UNK        -0.4892 
      5 CA         28.8068   -3.1280   -1.1706 C.3       1 UNK         0.0835 
      6 C6         29.3158   -4.3111   -0.3005 C.3       12 UNK        -0.0855 
      7 S7         31.1147   -4.6033   -0.4039 S.3       12 UNK        -0.2931 
      8 C8         31.2237   -5.8838   -1.6958 C.3       12 UNK         0.0378 
      9 C9         31.0995   -5.2837   -3.0880 C.ar      12 UNK        -0.0802 
     10 C10        32.1278   -4.4784   -3.5871 C.ar      12 UNK        -0.0944 
     11 C11        32.0260   -3.9009   -4.8544 C.ar      12 UNK        -0.0787 
     12 C12        30.8966   -4.1524   -5.6355 C.ar      12 UNK        -0.0862 
     13 C13        29.8546   -4.9449   -5.1442 C.ar      12 UNK        -0.0733 
     14 C14        29.9649   -5.5185   -3.8727 C.ar      12 UNK        -0.0832 
     15 C15        28.5996   -5.1524   -5.9817 C.3       12 UNK         0.0240 
     16 S16        27.1790   -4.2055   -5.3406 S.3       12 UNK        -0.2522 
     17 C17        27.7794   -2.4843   -5.4265 C.3       12 UNK        -0.0967 
     18 CA         27.1335   -1.6590   -6.5590 C.3       5 UNK         0.0660 
     19 N          25.6791   -1.5488   -6.4051 N.am      5 UNK        -0.4015 
     20 C          24.8453   -0.9936   -7.2951 C.2       4 UNK         0.4946 
     21 O          25.2093   -0.5193   -8.3700 O.2       4 UNK        -0.5353 
     22 CA         23.3636   -0.9103   -6.8964 C.3       4 UNK         0.0277 
     23 CB         22.6778   -2.2771   -7.0525 C.3       4 UNK        -0.1981 
     24 N          23.1923   -0.4195   -5.5273 N.am      4 UNK        -0.4209 
     25 C          23.4666    0.8335   -5.1330 C.2       3 UNK         0.4942 
     26 O          23.7973    1.7369   -5.9006 O.2       3 UNK        -0.5208 
     27 CA         23.3960    1.1174   -3.6201 C.3       3 UNK         0.0250 
     28 CB         21.9795    1.5596   -3.2195 C.3       3 UNK        -0.1990 
     29 N          23.8122   -0.0178   -2.7852 N.am      3 UNK        -0.4232 
     30 C          25.0302   -0.5760   -2.8192 C.2       2 UNK         0.4993 
     31 O          25.9362   -0.1873   -3.5584 O.2       2 UNK        -0.5286 
     32 CA         25.2523   -1.8075   -1.9357 C.3       2 UNK         0.0209 
     33 CB         24.4866   -3.0215   -2.5036 C.3       2 UNK        -0.1931 
     34 N          26.6847   -2.0985   -1.8755 N.am      2 UNK        -0.4546 
     35 C          27.2815   -2.9248   -1.0117 C.2       1 UNK         0.5154 
     36 O          26.6727   -3.5017   -0.1076 O.2       1 UNK        -0.5181 
     37 C          27.8057   -0.2756   -6.6541 C.2       5 UNK         0.5014 
     38 O          28.6788   -0.0838   -7.5012 O.2       5 UNK        -0.5248 
     39 N          27.3530    0.6777   -5.8293 N.am      6 UNK        -0.4434 
     40 CA         27.7871    2.0762   -5.8348 C.3       6 UNK         0.0363 
     41 CB         27.1547    2.8035   -4.6382 C.3       6 UNK        -0.1936 
     42 C          27.4864    2.8280   -7.1474 C.2       6 UNK         0.5081 
     43 O          28.1388    3.8370   -7.4133 O.2       6 UNK        -0.5248 
     44 N          26.5295    2.3345   -7.9442 N.am      7 UNK        -0.4718 
     45 CA         26.2333    2.8344   -9.2851 C.3       7 UNK         0.0273 
     46 CB         24.7131    2.8061   -9.5174 C.3       7 UNK        -0.1935 
     47 C          26.9682    2.0158  -10.3586 C.2       7 UNK         0.5018 
     48 O          27.5930    2.6055  -11.2406 O.2       7 UNK        -0.5186 
     49 N          26.8583    0.6812  -10.2851 N.am      8 UNK        -0.4240 
     50 CA         27.3565   -0.2541  -11.2963 C.3       8 UNK         0.0235 
     51 CB         26.6915   -1.6264  -11.0964 C.3       8 UNK        -0.2000 
     52 C          28.8861   -0.3939  -11.3161 C.2       8 UNK         0.4941 
     53 O          29.4798   -0.3355  -12.3939 O.2       8 UNK        -0.5273 
     54 N          29.4898   -0.5986  -10.1392 N.am      9 UNK        -0.4262 
     55 CA         30.9351   -0.7556   -9.9639 C.3       9 UNK         0.0264 
     56 CB         31.2159   -1.8573   -8.9262 C.3       9 UNK        -0.1955 
     57 C          31.5811    0.5657   -9.5305 C.2       9 UNK         0.5031 
     58 O          32.6629    0.8925  -10.0200 O.2       9 UNK        -0.5390 
     59 N          30.9074    1.2909   -8.6232 N.am      10 UNK        -0.4204 
     60 CA         31.3131    2.5761   -8.0379 C.3       10 UNK         0.0237 
     61 CB         31.2865    3.6945   -9.1012 C.3       10 UNK        -0.1985 
     62 C          32.6423    2.5078   -7.2584 C.2       10 UNK         0.4970 
     63 O          33.4044    3.4766   -7.2496 O.2       10 UNK        -0.4914 
     64 N          32.8918    1.3605   -6.6165 N.am      11 UNK        -0.4285 
     65 CA         34.0437    1.1076   -5.7435 C.3       11 UNK         0.1007 
     66 C          33.9960    1.9075   -4.4096 C.2       11 UNK         0.5703 
     67 N          35.1369    2.0844   -3.7562 N.am      11 UNK        -0.7361 
     68 O          32.9435    2.3490   -3.9506 O.2       11 UNK        -0.4986 
     69 C69        34.2496   -0.4145   -5.5183 C.3       12 UNK        -0.0947 
     70 S70        32.7862   -1.2664   -4.8378 S.3       12 UNK        -0.2240 
     71 C71        33.1167   -2.9742   -5.3623 C.3       12 UNK         0.0194 
     72 H72        30.9768    0.1525   -0.3302 H         1 UNK         0.0906 
     73 H73        31.3540    0.4650   -2.0264 H         1 UNK         0.0906 
     74 H74        29.9395    1.2168   -1.2851 H         1 UNK         0.0906 
     75 H75        29.9888   -1.8414    0.0058 H         1 UNK         0.3140 
     76 H76        28.9760   -3.3971   -2.2157 H         1 UNK         0.1085 
     77 H77        29.0847   -4.1324    0.7515 H         1 UNK         0.0836 
     78 H78        28.7914   -5.2308   -0.5668 H         1 UNK         0.0836 
     79 H79        32.1902   -6.3830   -1.6119 H         1 UNK         0.0731 
     80 H80        30.4696   -6.6537   -1.5256 H         1 UNK         0.0731 
     81 H81        32.9969   -4.2793   -2.9748 H         1 UNK         0.1312 
     82 H82        30.8130   -3.6996   -6.6133 H         1 UNK         0.1406 
     83 H83        29.1577   -6.1287   -3.4903 H         1 UNK         0.1631 
     84 H84        28.3424   -6.2125   -5.9920 H         1 UNK         0.0717 
     85 H85        28.7744   -4.8700   -7.0212 H         1 UNK         0.0717 
     86 H86        27.5662   -2.0239   -4.4651 H         1 UNK         0.0934 
     87 H87        28.8645   -2.4648   -5.5160 H         1 UNK         0.0934 
     88 H88        27.3226   -2.1725   -7.5040 H         1 UNK         0.0739 
     89 H89        25.3027   -1.8910   -5.5350 H         1 UNK         0.3093 
     90 H90        22.8772   -0.2052   -7.5744 H         1 UNK         0.0818 
     91 H91        21.6089   -2.2090   -6.8491 H         1 UNK         0.0819 
     92 H92        22.7880   -2.6526   -8.0710 H         1 UNK         0.0819 
     93 H93        23.0999   -3.0267   -6.3819 H         1 UNK         0.0819 
     94 H94        22.9003   -1.0878   -4.8298 H         1 UNK         0.3041 
     95 H95        24.0808    1.9427   -3.4136 H         1 UNK         0.0784 
     96 H96        21.6568    2.4169   -3.8123 H         1 UNK         0.0793 
     97 H97        21.2481    0.7648   -3.3713 H         1 UNK         0.0793 
     98 H98        21.9383    1.8597   -2.1722 H         1 UNK         0.0793 
     99 H99        23.1179   -0.3943   -2.1552 H         1 UNK         0.3024 
    100 H100       24.8960   -1.5782   -0.9290 H         1 UNK         0.1171 
    101 H101       24.8348   -3.2855   -3.5026 H         1 UNK         0.0786 
    102 H102       24.6038   -3.9012   -1.8709 H         1 UNK         0.0786 
    103 H103       23.4163   -2.8239   -2.5705 H         1 UNK         0.0786 
    104 H104       27.2608   -1.5656   -2.5244 H         1 UNK         0.2977 
    105 H105       26.6937    0.4107   -5.0985 H         1 UNK         0.3127 
    106 H106       28.8700    2.0782   -5.6978 H         1 UNK         0.0770 
    107 H107       26.0678    2.8322   -4.7165 H         1 UNK         0.0814 
    108 H108       27.5057    3.8344   -4.5772 H         1 UNK         0.0814 
    109 H109       27.4111    2.3160   -3.6972 H         1 UNK         0.0814 
    110 H110       26.0325    1.5042   -7.6478 H         1 UNK         0.2983 
    111 H111       26.5619    3.8722   -9.3767 H         1 UNK         0.0947 
    112 H112       24.4631    3.1847  -10.5093 H         1 UNK         0.0806 
    113 H113       24.1927    3.4304   -8.7906 H         1 UNK         0.0806 
    114 H114       24.3043    1.7982   -9.4397 H         1 UNK         0.0806 
    115 H115       26.2958    0.2776   -9.5364 H         1 UNK         0.3000 
    116 H116       27.0509    0.1235  -12.2746 H         1 UNK         0.0850 
    117 H117       27.0275   -2.3386  -11.8513 H         1 UNK         0.0810 
    118 H118       25.6066   -1.5554  -11.1775 H         1 UNK         0.0810 
    119 H119       26.9237   -2.0510  -10.1189 H         1 UNK         0.0810 
    120 H120       28.9356   -0.5645   -9.2877 H         1 UNK         0.3040 
    121 H121       31.3946   -1.0612  -10.9064 H         1 UNK         0.0766 
    122 H122       30.7815   -2.8088   -9.2330 H         1 UNK         0.0812 
    123 H123       30.8154   -1.6078   -7.9433 H         1 UNK         0.0812 
    124 H124       32.2889   -2.0140   -8.8079 H         1 UNK         0.0812 
    125 H125       30.0459    0.8906   -8.2541 H         1 UNK         0.3205 
    126 H126       30.5592    2.8193   -7.2910 H         1 UNK         0.0754 
    127 H127       31.4501    4.6719   -8.6459 H         1 UNK         0.0769 
    128 H128       30.3207    3.7333   -9.6061 H         1 UNK         0.0769 
    129 H129       32.0578    3.5533   -9.8588 H         1 UNK         0.0769 
    130 H130       32.1999    0.6273   -6.6429 H         1 UNK         0.2981 
    131 H131       34.9217    1.4702   -6.2819 H         1 UNK         0.0541 
    132 H132       36.0068    1.7234   -4.1156 H         1 UNK         0.3459 
    133 H133       35.1273    2.5925   -2.8858 H         1 UNK         0.3459 
    134 H134       35.1002   -0.6013   -4.8606 H         1 UNK         0.0612 
    135 H135       34.5054   -0.8806   -6.4712 H         1 UNK         0.0612 
    136 H136       33.1757   -3.0181   -6.4509 H         1 UNK         0.0624 
    137 H137       34.0889   -3.2909   -4.9814 H         1 UNK         0.0624 
@<TRIPOS>BOND
     1    1    2 1    
     2    1   72 1    
     3    1   73 1    
     4    1   74 1    
     5    2    3 2    
     6    2    4 am   BACKBONE|DICT|INTERRES
     7    4    5 1    
     8    4   75 1    
     9    5    6 1    
    10    5   35 1    
    11    5   76 1    
    12    6    7 1    
    13    6   77 1    
    14    6   78 1    
    15    7    8 1    
    16    8    9 1    
    17    8   79 1    
    18    8   80 1    
    19    9   10 ar   
    20    9   14 ar   
    21   10   11 ar   
    22   10   81 1    
    23   11   12 ar   
    24   11   71 1    
    25   12   13 ar   
    26   12   82 1    
    27   13   14 ar   
    28   13   15 1    
    29   14   83 1    
    30   15   16 1    
    31   15   84 1    
    32   15   85 1    
    33   16   17 1    
    34   17   18 1    
    35   17   86 1    
    36   17   87 1    
    37   18   19 1    
    38   18   37 1    
    39   18   88 1    
    40   19   20 am   BACKBONE|DICT|INTERRES
    41   19   89 1    
    42   20   21 2    
    43   20   22 1    
    44   22   23 1    
    45   22   24 1    
    46   22   90 1    
    47   23   91 1    
    48   23   92 1    
    49   23   93 1    
    50   24   25 am   BACKBONE|DICT|INTERRES
    51   24   94 1    
    52   25   26 2    
    53   25   27 1    
    54   27   28 1    
    55   27   29 1    
    56   27   95 1    
    57   28   96 1    
    58   28   97 1    
    59   28   98 1    
    60   29   30 am   BACKBONE|DICT|INTERRES
    61   29   99 1    
    62   30   31 2    
    63   30   32 1    
    64   32   33 1    
    65   32   34 1    
    66   32  100 1    
    67   33  101 1    
    68   33  102 1    
    69   33  103 1    
    70   34   35 am   BACKBONE|DICT|INTERRES
    71   34  104 1    
    72   35   36 2    
    73   37   38 2    
    74   37   39 am   BACKBONE|DICT|INTERRES
    75   39   40 1    
    76   39  105 1    
    77   40   41 1    
    78   40   42 1    
    79   40  106 1    
    80   41  107 1    
    81   41  108 1    
    82   41  109 1    
    83   42   43 2    
    84   42   44 am   BACKBONE|DICT|INTERRES
    85   44   45 1    
    86   44  110 1    
    87   45   46 1    
    88   45   47 1    
    89   45  111 1    
    90   46  112 1    
    91   46  113 1    
    92   46  114 1    
    93   47   48 2    
    94   47   49 am   BACKBONE|DICT|INTERRES
    95   49   50 1    
    96   49  115 1    
    97   50   51 1    
    98   50   52 1    
    99   50  116 1    
   100   51  117 1    
   101   51  118 1    
   102   51  119 1    
   103   52   53 2    
   104   52   54 am   BACKBONE|DICT|INTERRES
   105   54   55 1    
   106   54  120 1    
   107   55   56 1    
   108   55   57 1    
   109   55  121 1    
   110   56  122 1    
   111   56  123 1    
   112   56  124 1    
   113   57   58 2    
   114   57   59 am   BACKBONE|DICT|INTERRES
   115   59   60 1    
   116   59  125 1    
   117   60   61 1    
   118   60   62 1    
   119   60  126 1    
   120   61  127 1    
   121   61  128 1    
   122   61  129 1    
   123   62   63 2    
   124   62   64 am   BACKBONE|DICT|INTERRES
   125   64   65 1    
   126   64  130 1    
   127   65   66 1    
   128   65   69 1    
   129   65  131 1    
   130   66   67 am   BACKBONE|DICT|INTERRES
   131   66   68 2    
   132   67  132 1    
   133   67  133 1    
   134   69   70 1    
   135   69  134 1    
   136   69  135 1    
   137   70   71 1    
   138   71  136 1    
   139   71  137 1    
@<TRIPOS>SUBSTRUCTURE
     1 UNK         1 GROUP             0       ****    0 ROOT    
