@<TRIPOS>MOLECULE
3R137
137   139    1
SMALL
USER_CHARGES


@<TRIPOS>ATOM
      1 CA         22.8602   -3.2002   -0.9375 C.3       0 UNK        -0.2020 
      2 C          24.3570   -2.9795   -0.7851 C.2       0 UNK         0.4855 
      3 O          24.7760   -1.9137   -0.3336 O.2       0 UNK        -0.5197 
      4 N          25.1716   -3.9770   -1.1529 N.am      1 UNK        -0.4892 
      5 CA         26.6353   -3.9116   -1.0805 C.3       1 UNK         0.0835 
      6 C6         27.2777   -5.3158   -1.1928 C.3       12 UNK        -0.0855 
      7 S7         28.8172   -5.4303   -0.2194 S.3       12 UNK        -0.2931 
      8 C8         29.9501   -6.2480   -1.3839 C.3       12 UNK         0.0378 
      9 C9         30.4934   -5.2840   -2.4280 C.ar      12 UNK        -0.0802 
     10 C10        31.5739   -4.4536   -2.1206 C.ar      12 UNK        -0.0944 
     11 C11        32.1214   -3.5954   -3.0807 C.ar      12 UNK        -0.0787 
     12 C12        31.5546   -3.5665   -4.3643 C.ar      12 UNK        -0.0862 
     13 C13        30.4819   -4.4056   -4.6885 C.ar      12 UNK        -0.0733 
     14 C14        29.9547   -5.2577   -3.7150 C.ar      12 UNK        -0.0832 
     15 C15        29.9291   -4.4604   -6.1055 C.3       12 UNK         0.0240 
     16 S16        28.2179   -3.8489   -6.1991 S.3       12 UNK        -0.2522 
     17 C17        28.4902   -2.1028   -6.6304 C.3       12 UNK        -0.0967 
     18 CA         27.1808   -1.3979   -7.0526 C.3       5 UNK         0.0660 
     19 N          26.1655   -1.4197   -5.9921 N.am      5 UNK        -0.4015 
     20 C          24.8778   -1.0802   -6.1541 C.2       4 UNK         0.4946 
     21 O          24.3930   -0.7195   -7.2277 O.2       4 UNK        -0.5353 
     22 CA         23.9994   -1.0951   -4.8950 C.3       4 UNK         0.0277 
     23 CB         23.5030   -2.5167   -4.5868 C.3       4 UNK        -0.1981 
     24 N          24.7246   -0.5404   -3.7476 N.am      4 UNK        -0.4209 
     25 C          24.8704    0.7771   -3.5340 C.2       3 UNK         0.4942 
     26 O          24.2863    1.6378   -4.1914 O.2       3 UNK        -0.5208 
     27 CA         25.8442    1.2303   -2.4304 C.3       3 UNK         0.0250 
     28 CB         25.0852    1.5546   -1.1341 C.3       3 UNK        -0.1990 
     29 N          26.9070    0.2614   -2.1519 N.am      3 UNK        -0.4232 
     30 C          27.9142   -0.0239   -2.9919 C.2       2 UNK         0.4993 
     31 O          28.0714    0.5314   -4.0775 O.2       2 UNK        -0.5286 
     32 CA         28.8772   -1.1549   -2.5817 C.3       2 UNK         0.0209 
     33 CB         30.1015   -0.5814   -1.8525 C.3       2 UNK        -0.1931 
     34 N          28.2536   -2.1928   -1.7536 N.am      2 UNK        -0.4546 
     35 C          27.1947   -2.9247   -2.1254 C.2       1 UNK         0.5154 
     36 O          26.6406   -2.8086   -3.2232 O.2       1 UNK        -0.5181 
     37 C          27.4753    0.0178   -7.5951 C.2       5 UNK         0.5014 
     38 O          28.0015    0.1308   -8.7036 O.2       5 UNK        -0.5248 
     39 N          27.1202    1.0718   -6.8438 N.am      6 UNK        -0.4434 
     40 CA         27.2258    2.4877   -7.2188 C.3       6 UNK         0.0363 
     41 CB         26.7013    3.3590   -6.0689 C.3       6 UNK        -0.1936 
     42 C          26.5283    2.8589   -8.5400 C.2       6 UNK         0.5081 
     43 O          26.9575    3.8108   -9.1918 O.2       6 UNK        -0.5248 
     44 N          25.5296    2.0679   -8.9600 N.am      7 UNK        -0.4718 
     45 CA         24.9087    2.1332  -10.2885 C.3       7 UNK         0.0273 
     46 CB         23.7312    1.1469  -10.3373 C.3       7 UNK        -0.1935 
     47 C          25.8892    1.8595  -11.4499 C.2       7 UNK         0.5018 
     48 O          25.6451    2.3269  -12.5625 O.2       7 UNK        -0.5186 
     49 N          26.9823    1.1378  -11.1669 N.am      8 UNK        -0.4240 
     50 CA         28.1051    0.8763  -12.0675 C.3       8 UNK         0.0235 
     51 CB         28.2496   -0.6473  -12.2417 C.3       8 UNK        -0.2000 
     52 C          29.4012    1.5215  -11.5331 C.2       8 UNK         0.4941 
     53 O          30.4886    1.0317  -11.8390 O.2       8 UNK        -0.5273 
     54 N          29.2686    2.5953  -10.7358 N.am      9 UNK        -0.4262 
     55 CA         30.3279    3.3896  -10.0929 C.3       9 UNK         0.0264 
     56 CB         31.2898    3.9991  -11.1355 C.3       9 UNK        -0.1955 
     57 C          31.0809    2.6818   -8.9452 C.2       9 UNK         0.5031 
     58 O          32.0508    3.2472   -8.4360 O.2       9 UNK        -0.5390 
     59 N          30.6001    1.5047   -8.5192 N.am      10 UNK        -0.4204 
     60 CA         31.0863    0.6846   -7.4043 C.3       10 UNK         0.0237 
     61 CB         30.8341    1.3949   -6.0513 C.3       10 UNK        -0.1985 
     62 C          32.5366    0.1856   -7.5597 C.2       10 UNK         0.4970 
     63 O          33.1083    0.2120   -8.6511 O.2       10 UNK        -0.4914 
     64 N          33.0802   -0.3044   -6.4434 N.am      11 UNK        -0.4285 
     65 CA         34.4591   -0.7711   -6.2551 C.3       11 UNK         0.1007 
     66 C          35.5260    0.3613   -6.1609 C.2       11 UNK         0.5703 
     67 N          35.1553    1.6366   -6.1581 N.am      11 UNK        -0.7361 
     68 O          36.7198    0.0751   -6.1058 O.2       11 UNK        -0.4986 
     69 C69        34.5435   -1.7630   -5.0584 C.3       12 UNK        -0.0947 
     70 S70        33.6091   -1.2118   -3.5814 S.3       12 UNK        -0.2240 
     71 C71        33.3599   -2.7825   -2.6900 C.3       12 UNK         0.0194 
     72 H72        22.3906   -2.3153   -1.3662 H         1 UNK         0.0906 
     73 H73        22.4089   -3.3836    0.0371 H         1 UNK         0.0906 
     74 H74        22.6383   -4.0495   -1.5834 H         1 UNK         0.0906 
     75 H75        24.7836   -4.8188   -1.5541 H         1 UNK         0.3140 
     76 H76        26.8646   -3.5092   -0.0904 H         1 UNK         0.1085 
     77 H77        26.6051   -6.0729   -0.7861 H         1 UNK         0.0836 
     78 H78        27.4425   -5.6004   -2.2335 H         1 UNK         0.0836 
     79 H79        29.4464   -7.0929   -1.8565 H         1 UNK         0.0731 
     80 H80        30.7819   -6.6729   -0.8199 H         1 UNK         0.0731 
     81 H81        32.0047   -4.4942   -1.1292 H         1 UNK         0.1312 
     82 H82        31.9600   -2.9210   -5.1279 H         1 UNK         0.1406 
     83 H83        29.1345   -5.9144   -3.9716 H         1 UNK         0.1631 
     84 H84        29.9419   -5.4974   -6.4441 H         1 UNK         0.0717 
     85 H85        30.5673   -3.9122   -6.8000 H         1 UNK         0.0717 
     86 H86        28.9643   -1.5892   -5.7934 H         1 UNK         0.0934 
     87 H87        29.2018   -2.0850   -7.4574 H         1 UNK         0.0934 
     88 H88        26.7645   -1.9559   -7.8943 H         1 UNK         0.0739 
     89 H89        26.4685   -1.7645   -5.0877 H         1 UNK         0.3093 
     90 H90        23.1221   -0.4760   -5.0959 H         1 UNK         0.0818 
     91 H91        22.9864   -2.9416   -5.4485 H         1 UNK         0.0819 
     92 H92        24.3179   -3.1944   -4.3328 H         1 UNK         0.0819 
     93 H93        22.7940   -2.5142   -3.7608 H         1 UNK         0.0819 
     94 H94        25.2632   -1.1928   -3.1895 H         1 UNK         0.3041 
     95 H95        26.3193    2.1500   -2.7792 H         1 UNK         0.0784 
     96 H96        24.3296    2.3220   -1.3083 H         1 UNK         0.0793 
     97 H97        24.5715    0.6803   -0.7345 H         1 UNK         0.0793 
     98 H98        25.7569    1.9325   -0.3632 H         1 UNK         0.0793 
     99 H99        26.8323   -0.2616   -1.2903 H         1 UNK         0.3024 
    100 H100       29.2232   -1.6405   -3.4957 H         1 UNK         0.1171 
    101 H101       30.8251   -1.3617   -1.6173 H         1 UNK         0.0786 
    102 H102       30.6145    0.1548   -2.4732 H         1 UNK         0.0786 
    103 H103       29.8239   -0.0879   -0.9205 H         1 UNK         0.0786 
    104 H104       28.6692   -2.3620   -0.8485 H         1 UNK         0.2977 
    105 H105       26.8012    0.8830   -5.9021 H         1 UNK         0.3127 
    106 H106       28.2838    2.7114   -7.3547 H         1 UNK         0.0770 
    107 H107       25.6370    3.1970   -5.8962 H         1 UNK         0.0814 
    108 H108       26.8374    4.4187   -6.2889 H         1 UNK         0.0814 
    109 H109       27.2304    3.1509   -5.1385 H         1 UNK         0.0814 
    110 H110       25.2400    1.3039   -8.3617 H         1 UNK         0.2983 
    111 H111       24.5199    3.1446  -10.4248 H         1 UNK         0.0947 
    112 H112       24.0599    0.1191  -10.1765 H         1 UNK         0.0806 
    113 H113       23.2295    1.1828  -11.3055 H         1 UNK         0.0806 
    114 H114       22.9851    1.3814   -9.5778 H         1 UNK         0.0806 
    115 H115       27.1127    0.8002  -10.2156 H         1 UNK         0.3000 
    116 H116       27.9173    1.3175  -13.0484 H         1 UNK         0.0850 
    117 H117       29.0369   -0.8906  -12.9562 H         1 UNK         0.0810 
    118 H118       27.3273   -1.0918  -12.6159 H         1 UNK         0.0810 
    119 H119       28.4988   -1.1361  -11.2988 H         1 UNK         0.0810 
    120 H120       28.3275    2.9122  -10.5264 H         1 UNK         0.3040 
    121 H121       29.8058    4.2217   -9.6180 H         1 UNK         0.0766 
    122 H122       31.9178    3.2398  -11.6019 H         1 UNK         0.0812 
    123 H123       31.9572    4.7271  -10.6728 H         1 UNK         0.0812 
    124 H124       30.7452    4.5180  -11.9243 H         1 UNK         0.0812 
    125 H125       29.7985    1.1193   -9.0068 H         1 UNK         0.3205 
    126 H126       30.4751   -0.2138   -7.4222 H         1 UNK         0.0754 
    127 H127       30.9815    0.7258   -5.2031 H         1 UNK         0.0769 
    128 H128       29.8094    1.7517   -5.9709 H         1 UNK         0.0769 
    129 H129       31.4926    2.2534   -5.9149 H         1 UNK         0.0769 
    130 H130       32.5387   -0.2744   -5.5921 H         1 UNK         0.2981 
    131 H131       34.7300   -1.3316   -7.1516 H         1 UNK         0.0541 
    132 H132       34.1833    1.8891   -6.2318 H         1 UNK         0.3459 
    133 H133       35.8608    2.3539   -6.1037 H         1 UNK         0.3459 
    134 H134       35.5778   -1.9541   -4.7668 H         1 UNK         0.0612 
    135 H135       34.1597   -2.7326   -5.3750 H         1 UNK         0.0612 
    136 H136       33.3037   -2.5360   -1.6286 H         1 UNK         0.0624 
    137 H137       34.2458   -3.4075   -2.8093 H         1 UNK         0.0624 
@<TRIPOS>BOND
     1    1    2 1    
     2    1   72 1    
     3    1   73 1    
     4    1   74 1    
     5    2    3 2    
     6    2    4 am   BACKBONE|DICT|INTERRES
     7    4    5 1    
     8    4   75 1    
     9    5    6 1    
    10    5   35 1    
    11    5   76 1    
    12    6    7 1    
    13    6   77 1    
    14    6   78 1    
    15    7    8 1    
    16    8    9 1    
    17    8   79 1    
    18    8   80 1    
    19    9   10 ar   
    20    9   14 ar   
    21   10   11 ar   
    22   10   81 1    
    23   11   12 ar   
    24   11   71 1    
    25   12   13 ar   
    26   12   82 1    
    27   13   14 ar   
    28   13   15 1    
    29   14   83 1    
    30   15   16 1    
    31   15   84 1    
    32   15   85 1    
    33   16   17 1    
    34   17   18 1    
    35   17   86 1    
    36   17   87 1    
    37   18   19 1    
    38   18   37 1    
    39   18   88 1    
    40   19   20 am   BACKBONE|DICT|INTERRES
    41   19   89 1    
    42   20   21 2    
    43   20   22 1    
    44   22   23 1    
    45   22   24 1    
    46   22   90 1    
    47   23   91 1    
    48   23   92 1    
    49   23   93 1    
    50   24   25 am   BACKBONE|DICT|INTERRES
    51   24   94 1    
    52   25   26 2    
    53   25   27 1    
    54   27   28 1    
    55   27   29 1    
    56   27   95 1    
    57   28   96 1    
    58   28   97 1    
    59   28   98 1    
    60   29   30 am   BACKBONE|DICT|INTERRES
    61   29   99 1    
    62   30   31 2    
    63   30   32 1    
    64   32   33 1    
    65   32   34 1    
    66   32  100 1    
    67   33  101 1    
    68   33  102 1    
    69   33  103 1    
    70   34   35 am   BACKBONE|DICT|INTERRES
    71   34  104 1    
    72   35   36 2    
    73   37   38 2    
    74   37   39 am   BACKBONE|DICT|INTERRES
    75   39   40 1    
    76   39  105 1    
    77   40   41 1    
    78   40   42 1    
    79   40  106 1    
    80   41  107 1    
    81   41  108 1    
    82   41  109 1    
    83   42   43 2    
    84   42   44 am   BACKBONE|DICT|INTERRES
    85   44   45 1    
    86   44  110 1    
    87   45   46 1    
    88   45   47 1    
    89   45  111 1    
    90   46  112 1    
    91   46  113 1    
    92   46  114 1    
    93   47   48 2    
    94   47   49 am   BACKBONE|DICT|INTERRES
    95   49   50 1    
    96   49  115 1    
    97   50   51 1    
    98   50   52 1    
    99   50  116 1    
   100   51  117 1    
   101   51  118 1    
   102   51  119 1    
   103   52   53 2    
   104   52   54 am   BACKBONE|DICT|INTERRES
   105   54   55 1    
   106   54  120 1    
   107   55   56 1    
   108   55   57 1    
   109   55  121 1    
   110   56  122 1    
   111   56  123 1    
   112   56  124 1    
   113   57   58 2    
   114   57   59 am   BACKBONE|DICT|INTERRES
   115   59   60 1    
   116   59  125 1    
   117   60   61 1    
   118   60   62 1    
   119   60  126 1    
   120   61  127 1    
   121   61  128 1    
   122   61  129 1    
   123   62   63 2    
   124   62   64 am   BACKBONE|DICT|INTERRES
   125   64   65 1    
   126   64  130 1    
   127   65   66 1    
   128   65   69 1    
   129   65  131 1    
   130   66   67 am   BACKBONE|DICT|INTERRES
   131   66   68 2    
   132   67  132 1    
   133   67  133 1    
   134   69   70 1    
   135   69  134 1    
   136   69  135 1    
   137   70   71 1    
   138   71  136 1    
   139   71  137 1    
@<TRIPOS>SUBSTRUCTURE
     1 UNK         1 GROUP             0       ****    0 ROOT    
