@<TRIPOS>MOLECULE
3R137
137   139    1
SMALL
USER_CHARGES


@<TRIPOS>ATOM
      1 CA         23.5060   -5.5165   -2.5573 C.3       0 UNK        -0.2020 
      2 C          24.2902   -4.5058   -1.7349 C.2       0 UNK         0.4855 
      3 O          23.7105   -3.5458   -1.2258 O.2       0 UNK        -0.5197 
      4 N          25.6056   -4.7208   -1.6093 N.am      1 UNK        -0.4892 
      5 CA         26.5843   -3.8901   -0.8967 C.3       1 UNK         0.0835 
      6 C6         28.0113   -4.5171   -0.9184 C.3       12 UNK        -0.0855 
      7 S7         28.4484   -5.4331   -2.4471 S.3       12 UNK        -0.2931 
      8 C8         30.2260   -5.0867   -2.6335 C.3       12 UNK         0.0378 
      9 C9         30.4688   -3.8518   -3.4867 C.ar      12 UNK        -0.0802 
     10 C10        30.5950   -3.9682   -4.8749 C.ar      12 UNK        -0.0944 
     11 C11        30.8107   -2.8350   -5.6652 C.ar      12 UNK        -0.0787 
     12 C12        30.8905   -1.5778   -5.0588 C.ar      12 UNK        -0.0862 
     13 C13        30.7837   -1.4516   -3.6715 C.ar      12 UNK        -0.0733 
     14 C14        30.5777   -2.5932   -2.8913 C.ar      12 UNK        -0.0832 
     15 C15        30.9081   -0.0915   -3.0023 C.3       12 UNK         0.0240 
     16 S16        29.3645    0.3723   -2.1609 S.3       12 UNK        -0.2522 
     17 C17        28.5979    1.5519   -3.3173 C.3       12 UNK        -0.0967 
     18 CA         28.3138    1.0344   -4.7525 C.3       5 UNK         0.0660 
     19 N          27.6050   -0.2548   -4.8000 N.am      5 UNK        -0.4015 
     20 C          27.3253   -0.9269   -5.9311 C.2       4 UNK         0.4946 
     21 O          27.7011   -0.5758   -7.0483 O.2       4 UNK        -0.5353 
     22 CA         26.4018   -2.1506   -5.8262 C.3       4 UNK         0.0277 
     23 CB         27.1882   -3.4274   -5.4975 C.3       4 UNK        -0.1981 
     24 N          25.3422   -1.9320   -4.8421 N.am      4 UNK        -0.4209 
     25 C          24.2568   -1.1772   -5.0733 C.2       3 UNK         0.4942 
     26 O          23.9999   -0.6752   -6.1665 O.2       3 UNK        -0.5208 
     27 CA         23.3161   -0.8945   -3.8880 C.3       3 UNK         0.0250 
     28 CB         22.1649   -1.9103   -3.8492 C.3       3 UNK        -0.1990 
     29 N          24.0137   -0.8778   -2.6000 N.am      3 UNK        -0.4232 
     30 C          24.8974    0.0692   -2.2494 C.2       2 UNK         0.4993 
     31 O          25.1494    1.0519   -2.9469 O.2       2 UNK        -0.5286 
     32 CA         25.6749   -0.1366   -0.9366 C.3       2 UNK         0.0209 
     33 CB         24.9480    0.5498    0.2302 C.3       2 UNK        -0.1931 
     34 N          25.9169   -1.5447   -0.6014 N.am      2 UNK        -0.4546 
     35 C          26.5582   -2.4258   -1.3840 C.2       1 UNK         0.5154 
     36 O          27.0432   -2.1294   -2.4752 O.2       1 UNK        -0.5181 
     37 C          27.5698    2.1341   -5.5392 C.2       5 UNK         0.5014 
     38 O          28.2071    2.9345   -6.2245 O.2       5 UNK        -0.5248 
     39 N          26.2340    2.1574   -5.4208 N.am      6 UNK        -0.4434 
     40 CA         25.3517    3.0451   -6.1782 C.3       6 UNK         0.0363 
     41 CB         23.9387    2.9961   -5.5758 C.3       6 UNK        -0.1936 
     42 C          25.3120    2.7121   -7.6806 C.2       6 UNK         0.5081 
     43 O          25.1693    3.6271   -8.4923 O.2       6 UNK        -0.5248 
     44 N          25.4301    1.4222   -8.0268 N.am      7 UNK        -0.4718 
     45 CA         25.4395    0.9355   -9.4063 C.3       7 UNK         0.0273 
     46 CB         25.1483   -0.5735   -9.4382 C.3       7 UNK        -0.1935 
     47 C          26.7486    1.2549  -10.1450 C.2       7 UNK         0.5018 
     48 O          26.6842    1.6688  -11.3041 O.2       7 UNK        -0.5186 
     49 N          27.9021    1.0663   -9.4876 N.am      8 UNK        -0.4240 
     50 CA         29.2179    1.3304  -10.0687 C.3       8 UNK         0.0235 
     51 CB         29.6778    0.1184  -10.8946 C.3       8 UNK        -0.2000 
     52 C          30.2363    1.6649   -8.9745 C.2       8 UNK         0.4941 
     53 O          30.2047    1.0685   -7.8964 O.2       8 UNK        -0.5273 
     54 N          31.1574    2.5855   -9.2898 N.am      9 UNK        -0.4262 
     55 CA         32.1709    3.1470   -8.3891 C.3       9 UNK         0.0264 
     56 CB         32.6900    4.4656   -8.9940 C.3       9 UNK        -0.1955 
     57 C          33.3128    2.1690   -8.0370 C.2       9 UNK         0.5031 
     58 O          34.4809    2.4678   -8.2912 O.2       9 UNK        -0.5390 
     59 N          32.9376    1.0296   -7.4451 N.am      10 UNK        -0.4204 
     60 CA         33.7726   -0.0396   -6.8863 C.3       10 UNK         0.0237 
     61 CB         34.3409    0.4159   -5.5256 C.3       10 UNK        -0.1985 
     62 C          34.8696   -0.5740   -7.8378 C.2       10 UNK         0.4970 
     63 O          36.0524   -0.4011   -7.5424 O.2       10 UNK        -0.4914 
     64 N          34.5394   -1.2237   -8.9626 N.am      11 UNK        -0.4285 
     65 CA         33.2126   -1.5014   -9.5424 C.3       11 UNK         0.1007 
     66 C          33.1641   -1.0675  -11.0373 C.2       11 UNK         0.5703 
     67 N          33.9551   -0.0876  -11.4601 N.am      11 UNK        -0.7361 
     68 O          32.4041   -1.6167  -11.8306 O.2       11 UNK        -0.4986 
     69 C69        32.7649   -2.9787   -9.3382 C.3       12 UNK        -0.0947 
     70 S70        32.6662   -3.4784   -7.5897 S.3       12 UNK        -0.2240 
     71 C71        30.9697   -2.9682   -7.1713 C.3       12 UNK         0.0194 
     72 H72        23.4057   -5.1721   -3.5859 H         1 UNK         0.0906 
     73 H73        23.9972   -6.4894   -2.5694 H         1 UNK         0.0906 
     74 H74        22.5075   -5.6505   -2.1417 H         1 UNK         0.0906 
     75 H75        26.0231   -5.5044   -2.0938 H         1 UNK         0.3140 
     76 H76        26.2669   -3.8774    0.1483 H         1 UNK         0.1085 
     77 H77        28.0893   -5.2344   -0.0999 H         1 UNK         0.0836 
     78 H78        28.7712   -3.7635   -0.7047 H         1 UNK         0.0836 
     79 H79        30.7010   -5.9510   -3.1001 H         1 UNK         0.0731 
     80 H80        30.6945   -4.9797   -1.6540 H         1 UNK         0.0731 
     81 H81        30.5242   -4.9410   -5.3418 H         1 UNK         0.1312 
     82 H82        31.0388   -0.6977   -5.6678 H         1 UNK         0.1406 
     83 H83        30.4878   -2.4945   -1.8186 H         1 UNK         0.1631 
     84 H84        31.1962    0.6816   -3.7160 H         1 UNK         0.0717 
     85 H85        31.7087   -0.1368   -2.2629 H         1 UNK         0.0717 
     86 H86        27.6750    1.8940   -2.8457 H         1 UNK         0.0934 
     87 H87        29.2438    2.4312   -3.3630 H         1 UNK         0.0934 
     88 H88        29.2694    0.8838   -5.2563 H         1 UNK         0.0739 
     89 H89        27.3355   -0.6635   -3.9110 H         1 UNK         0.3093 
     90 H90        25.9342   -2.3010   -6.8013 H         1 UNK         0.0818 
     91 H91        26.5289   -4.2872   -5.3805 H         1 UNK         0.0819 
     92 H92        27.8906   -3.6615   -6.2978 H         1 UNK         0.0819 
     93 H93        27.7700   -3.3239   -4.5828 H         1 UNK         0.0819 
     94 H94        25.5432   -2.2384   -3.8974 H         1 UNK         0.3041 
     95 H95        22.8825    0.0957   -4.0443 H         1 UNK         0.0784 
     96 H96        21.5906   -1.8814   -4.7763 H         1 UNK         0.0793 
     97 H97        22.5280   -2.9293   -3.7249 H         1 UNK         0.0793 
     98 H98        21.4742   -1.6981   -3.0330 H         1 UNK         0.0793 
     99 H99        23.8750   -1.6762   -1.9862 H         1 UNK         0.3024 
    100 H100       26.6472    0.3421   -1.0610 H         1 UNK         0.1171 
    101 H101       25.5353    0.5019    1.1475 H         1 UNK         0.0786 
    102 H102       24.7743    1.6051    0.0143 H         1 UNK         0.0786 
    103 H103       23.9772    0.0927    0.4265 H         1 UNK         0.0786 
    104 H104       25.4943   -1.8790    0.2530 H         1 UNK         0.2977 
    105 H105       25.7951    1.5408   -4.7420 H         1 UNK         0.3127 
    106 H106       25.7312    4.0639   -6.0743 H         1 UNK         0.0770 
    107 H107       23.4999    2.0014   -5.6575 H         1 UNK         0.0814 
    108 H108       23.2720    3.6895   -6.0901 H         1 UNK         0.0814 
    109 H109       23.9459    3.2733   -4.5214 H         1 UNK         0.0814 
    110 H110       25.5202    0.7269   -7.2971 H         1 UNK         0.2983 
    111 H111       24.6306    1.4382   -9.9414 H         1 UNK         0.0947 
    112 H112       25.9338   -1.1496   -8.9502 H         1 UNK         0.0806 
    113 H113       25.0760   -0.9322  -10.4657 H         1 UNK         0.0806 
    114 H114       24.2040   -0.8073   -8.9462 H         1 UNK         0.0806 
    115 H115       27.8995    0.7023   -8.5349 H         1 UNK         0.3000 
    116 H116       29.1387    2.1972  -10.7289 H         1 UNK         0.0850 
    117 H117       28.9464   -0.1515  -11.6563 H         1 UNK         0.0810 
    118 H118       29.8465   -0.7578  -10.2668 H         1 UNK         0.0810 
    119 H119       30.6084    0.3429  -11.4147 H         1 UNK         0.0810 
    120 H120       31.1397    2.9762  -10.2211 H         1 UNK         0.3040 
    121 H121       31.6749    3.3949   -7.4477 H         1 UNK         0.0766 
    122 H122       33.4084    4.9460   -8.3283 H         1 UNK         0.0812 
    123 H123       31.8792    5.1764   -9.1549 H         1 UNK         0.0812 
    124 H124       33.1899    4.3023   -9.9497 H         1 UNK         0.0812 
    125 H125       31.9288    0.8922   -7.3784 H         1 UNK         0.3205 
    126 H126       33.1102   -0.8756   -6.6825 H         1 UNK         0.0754 
    127 H127       34.9127   -0.3836   -5.0525 H         1 UNK         0.0769 
    128 H128       33.5437    0.6920   -4.8358 H         1 UNK         0.0769 
    129 H129       35.0040    1.2754   -5.6320 H         1 UNK         0.0769 
    130 H130       35.3005   -1.5421   -9.5445 H         1 UNK         0.2981 
    131 H131       32.4569   -0.8783   -9.0702 H         1 UNK         0.0541 
    132 H132       33.9224    0.1850  -12.4299 H         1 UNK         0.3459 
    133 H133       34.5745    0.3889  -10.8234 H         1 UNK         0.3459 
    134 H134       31.7885   -3.1558   -9.7933 H         1 UNK         0.0612 
    135 H135       33.4596   -3.6538   -9.8406 H         1 UNK         0.0612 
    136 H136       30.2620   -3.7000   -7.5631 H         1 UNK         0.0624 
    137 H137       30.7351   -2.0189   -7.6565 H         1 UNK         0.0624 
@<TRIPOS>BOND
     1    1    2 1    
     2    1   72 1    
     3    1   73 1    
     4    1   74 1    
     5    2    3 2    
     6    2    4 am   BACKBONE|DICT|INTERRES
     7    4    5 1    
     8    4   75 1    
     9    5    6 1    
    10    5   35 1    
    11    5   76 1    
    12    6    7 1    
    13    6   77 1    
    14    6   78 1    
    15    7    8 1    
    16    8    9 1    
    17    8   79 1    
    18    8   80 1    
    19    9   10 ar   
    20    9   14 ar   
    21   10   11 ar   
    22   10   81 1    
    23   11   12 ar   
    24   11   71 1    
    25   12   13 ar   
    26   12   82 1    
    27   13   14 ar   
    28   13   15 1    
    29   14   83 1    
    30   15   16 1    
    31   15   84 1    
    32   15   85 1    
    33   16   17 1    
    34   17   18 1    
    35   17   86 1    
    36   17   87 1    
    37   18   19 1    
    38   18   37 1    
    39   18   88 1    
    40   19   20 am   BACKBONE|DICT|INTERRES
    41   19   89 1    
    42   20   21 2    
    43   20   22 1    
    44   22   23 1    
    45   22   24 1    
    46   22   90 1    
    47   23   91 1    
    48   23   92 1    
    49   23   93 1    
    50   24   25 am   BACKBONE|DICT|INTERRES
    51   24   94 1    
    52   25   26 2    
    53   25   27 1    
    54   27   28 1    
    55   27   29 1    
    56   27   95 1    
    57   28   96 1    
    58   28   97 1    
    59   28   98 1    
    60   29   30 am   BACKBONE|DICT|INTERRES
    61   29   99 1    
    62   30   31 2    
    63   30   32 1    
    64   32   33 1    
    65   32   34 1    
    66   32  100 1    
    67   33  101 1    
    68   33  102 1    
    69   33  103 1    
    70   34   35 am   BACKBONE|DICT|INTERRES
    71   34  104 1    
    72   35   36 2    
    73   37   38 2    
    74   37   39 am   BACKBONE|DICT|INTERRES
    75   39   40 1    
    76   39  105 1    
    77   40   41 1    
    78   40   42 1    
    79   40  106 1    
    80   41  107 1    
    81   41  108 1    
    82   41  109 1    
    83   42   43 2    
    84   42   44 am   BACKBONE|DICT|INTERRES
    85   44   45 1    
    86   44  110 1    
    87   45   46 1    
    88   45   47 1    
    89   45  111 1    
    90   46  112 1    
    91   46  113 1    
    92   46  114 1    
    93   47   48 2    
    94   47   49 am   BACKBONE|DICT|INTERRES
    95   49   50 1    
    96   49  115 1    
    97   50   51 1    
    98   50   52 1    
    99   50  116 1    
   100   51  117 1    
   101   51  118 1    
   102   51  119 1    
   103   52   53 2    
   104   52   54 am   BACKBONE|DICT|INTERRES
   105   54   55 1    
   106   54  120 1    
   107   55   56 1    
   108   55   57 1    
   109   55  121 1    
   110   56  122 1    
   111   56  123 1    
   112   56  124 1    
   113   57   58 2    
   114   57   59 am   BACKBONE|DICT|INTERRES
   115   59   60 1    
   116   59  125 1    
   117   60   61 1    
   118   60   62 1    
   119   60  126 1    
   120   61  127 1    
   121   61  128 1    
   122   61  129 1    
   123   62   63 2    
   124   62   64 am   BACKBONE|DICT|INTERRES
   125   64   65 1    
   126   64  130 1    
   127   65   66 1    
   128   65   69 1    
   129   65  131 1    
   130   66   67 am   BACKBONE|DICT|INTERRES
   131   66   68 2    
   132   67  132 1    
   133   67  133 1    
   134   69   70 1    
   135   69  134 1    
   136   69  135 1    
   137   70   71 1    
   138   71  136 1    
   139   71  137 1    
@<TRIPOS>SUBSTRUCTURE
     1 UNK         1 GROUP             0       ****    0 ROOT    
