@<TRIPOS>MOLECULE
3R137
137   139    1
SMALL
USER_CHARGES


@<TRIPOS>ATOM
      1 CA         30.7090    0.8986   -0.1964 C.3       0 UNK        -0.2020 
      2 C          30.3022   -0.4018   -0.8733 C.2       0 UNK         0.4855 
      3 O          30.9250   -0.7929   -1.8573 O.2       0 UNK        -0.5197 
      4 N          29.2626   -1.0622   -0.3537 N.am      1 UNK        -0.4892 
      5 CA         28.6478   -2.2715   -0.9088 C.3       1 UNK         0.0835 
      6 C6         28.9746   -3.5424   -0.0829 C.3       12 UNK        -0.0855 
      7 S7         30.7550   -3.9357   -0.0470 S.3       12 UNK        -0.2931 
      8 C8         30.8720   -5.2940   -1.2563 C.3       12 UNK         0.0378 
      9 C9         30.7106   -4.8317   -2.7010 C.ar      12 UNK        -0.0802 
     10 C10        31.6128   -3.9177   -3.2537 C.ar      12 UNK        -0.0944 
     11 C11        31.5290   -3.5581   -4.6019 C.ar      12 UNK        -0.0787 
     12 C12        30.5276   -4.1177   -5.4015 C.ar      12 UNK        -0.0862 
     13 C13        29.6091   -5.0295   -4.8624 C.ar      12 UNK        -0.0733 
     14 C14        29.7069   -5.3750   -3.5094 C.ar      12 UNK        -0.0832 
     15 C15        28.5609   -5.7289   -5.7289 C.3       12 UNK         0.0240 
     16 S16        27.9166   -4.7374   -7.1170 S.3       12 UNK        -0.2522 
     17 C17        26.7695   -3.6153   -6.2562 C.3       12 UNK        -0.0967 
     18 CA         26.4737   -2.3510   -7.1000 C.3       5 UNK         0.0660 
     19 N          25.1555   -1.7864   -6.8042 N.am      5 UNK        -0.4015 
     20 C          24.5226   -0.8851   -7.5680 C.2       4 UNK         0.4946 
     21 O          24.9754   -0.4394   -8.6219 O.2       4 UNK        -0.5353 
     22 CA         23.1676   -0.3714   -7.0543 C.3       4 UNK         0.0277 
     23 CB         22.0407   -1.3488   -7.4247 C.3       4 UNK        -0.1981 
     24 N          23.1640   -0.1364   -5.6084 N.am      4 UNK        -0.4209 
     25 C          23.8714    0.8300   -5.0067 C.2       3 UNK         0.4942 
     26 O          24.5697    1.6457   -5.6097 O.2       3 UNK        -0.5208 
     27 CA         23.8259    0.8651   -3.4684 C.3       3 UNK         0.0250 
     28 CB         22.5556    1.5818   -2.9826 C.3       3 UNK        -0.1990 
     29 N          23.9373   -0.4450   -2.8081 N.am      3 UNK        -0.4232 
     30 C          24.9182   -1.3331   -3.0216 C.2       2 UNK         0.4993 
     31 O          25.7511   -1.2339   -3.9223 O.2       2 UNK        -0.5286 
     32 CA         25.0024   -2.5508   -2.0909 C.3       2 UNK         0.0209 
     33 CB         24.4026   -3.7923   -2.7702 C.3       2 UNK        -0.1931 
     34 N          26.4093   -2.8066   -1.7667 N.am      2 UNK        -0.4546 
     35 C          27.1283   -2.0299   -0.9456 C.2       1 UNK         0.5154 
     36 O          26.6280   -1.1550   -0.2299 O.2       1 UNK        -0.5181 
     37 C          27.5796   -1.2901   -6.9559 C.2       5 UNK         0.5014 
     38 O          28.4282   -1.1780   -7.8388 O.2       5 UNK        -0.5248 
     39 N          27.5107   -0.4976   -5.8775 N.am      6 UNK        -0.4434 
     40 CA         28.3968    0.6289   -5.5890 C.3       6 UNK         0.0363 
     41 CB         28.0466    1.2225   -4.2159 C.3       6 UNK        -0.1936 
     42 C          28.3781    1.7070   -6.6821 C.2       6 UNK         0.5081 
     43 O          29.4330    2.2586   -6.9973 O.2       6 UNK        -0.5248 
     44 N          27.1960    1.9596   -7.2601 N.am      7 UNK        -0.4718 
     45 CA         27.0175    2.8202   -8.4271 C.3       7 UNK         0.0273 
     46 CB         25.5325    3.1888   -8.5770 C.3       7 UNK        -0.1935 
     47 C          27.5614    2.1745   -9.7127 C.2       7 UNK         0.5018 
     48 O          28.3325    2.8188  -10.4234 O.2       7 UNK        -0.5186 
     49 N          27.1605    0.9235   -9.9883 N.am      8 UNK        -0.4240 
     50 CA         27.5143    0.1804  -11.2037 C.3       8 UNK         0.0235 
     51 CB         26.7010   -1.1219  -11.2751 C.3       8 UNK        -0.2000 
     52 C          29.0163   -0.1164  -11.3419 C.2       8 UNK         0.4941 
     53 O          29.5733    0.0861  -12.4215 O.2       8 UNK        -0.5273 
     54 N          29.6469   -0.5792  -10.2546 N.am      9 UNK        -0.4262 
     55 CA         31.0837   -0.8623  -10.1894 C.3       9 UNK         0.0264 
     56 CB         31.3414   -1.9048   -9.0875 C.3       9 UNK        -0.1955 
     57 C          31.9317    0.3983   -9.9436 C.2       9 UNK         0.5031 
     58 O          33.1540    0.3266  -10.0764 O.2       9 UNK        -0.5390 
     59 N          31.2816    1.5099   -9.5641 N.am      10 UNK        -0.4204 
     60 CA         31.8548    2.8090   -9.1898 C.3       10 UNK         0.0237 
     61 CB         32.5831    3.4606  -10.3848 C.3       10 UNK        -0.1985 
     62 C          32.7223    2.7662   -7.9138 C.2       10 UNK         0.4970 
     63 O          33.5128    3.6849   -7.6901 O.2       10 UNK        -0.4914 
     64 N          32.5552    1.7201   -7.0940 N.am      11 UNK        -0.4285 
     65 CA         33.2198    1.5526   -5.7955 C.3       11 UNK         0.1007 
     66 C          32.5610    2.3546   -4.6344 C.2       11 UNK         0.5703 
     67 N          31.3716    2.9221   -4.8068 N.am      11 UNK        -0.7361 
     68 O          33.1570    2.4906   -3.5685 O.2       11 UNK        -0.4986 
     69 C69        33.4380    0.0543   -5.4526 C.3       12 UNK        -0.0947 
     70 S70        31.8977   -0.9038   -5.2705 S.3       12 UNK        -0.2240 
     71 C71        32.5477   -2.5969   -5.1984 C.3       12 UNK         0.0194 
     72 H72        30.6872    1.7170   -0.9159 H         1 UNK         0.0906 
     73 H73        30.0467    1.1548    0.6304 H         1 UNK         0.0906 
     74 H74        31.7234    0.8157    0.1931 H         1 UNK         0.0906 
     75 H75        28.7324   -0.6526    0.4049 H         1 UNK         0.3140 
     76 H76        28.9812   -2.4172   -1.9397 H         1 UNK         0.1085 
     77 H77        28.6405   -3.4200    0.9493 H         1 UNK         0.0836 
     78 H78        28.4323   -4.4066   -0.4713 H         1 UNK         0.0836 
     79 H79        31.8518   -5.7621   -1.1531 H         1 UNK         0.0731 
     80 H80        30.1427   -6.0653   -1.0037 H         1 UNK         0.0731 
     81 H81        32.3912   -3.4952   -2.6328 H         1 UNK         0.1312 
     82 H82        30.4808   -3.8517   -6.4485 H         1 UNK         0.1406 
     83 H83        29.0224   -6.1023   -3.0935 H         1 UNK         0.1631 
     84 H84        29.0136   -6.6322   -6.1394 H         1 UNK         0.0717 
     85 H85        27.7182   -6.0588   -5.1191 H         1 UNK         0.0717 
     86 H86        25.8512   -4.1789   -6.0844 H         1 UNK         0.0934 
     87 H87        27.1566   -3.3599   -5.2670 H         1 UNK         0.0934 
     88 H88        26.4450   -2.6441   -8.1520 H         1 UNK         0.0739 
     89 H89        24.7567   -2.0229   -5.9076 H         1 UNK         0.3093 
     90 H90        22.9680    0.5809   -7.5511 H         1 UNK         0.0818 
     91 H91        21.0646   -0.9539   -7.1420 H         1 UNK         0.0819 
     92 H92        22.0170   -1.5245   -8.5013 H         1 UNK         0.0819 
     93 H93        22.1650   -2.3176   -6.9394 H         1 UNK         0.0819 
     94 H94        22.6139   -0.7602   -5.0358 H         1 UNK         0.3041 
     95 H95        24.6861    1.4532   -3.1418 H         1 UNK         0.0784 
     96 H96        22.4582    2.5635   -3.4488 H         1 UNK         0.0793 
     97 H97        21.6541    1.0164   -3.2221 H         1 UNK         0.0793 
     98 H98        22.5764    1.7402   -1.9042 H         1 UNK         0.0793 
     99 H99        23.2833   -0.6207   -2.0585 H         1 UNK         0.3024 
    100 H100       24.4529   -2.3453   -1.1691 H         1 UNK         0.1171 
    101 H101       24.4536   -4.6636   -2.1169 H         1 UNK         0.0786 
    102 H102       23.3515   -3.6345   -3.0156 H         1 UNK         0.0786 
    103 H103       24.9210   -4.0392   -3.6972 H         1 UNK         0.0786 
    104 H104       26.8854   -3.4871   -2.3400 H         1 UNK         0.2977 
    105 H105       26.7913   -0.6970   -5.1798 H         1 UNK         0.3127 
    106 H106       29.4098    0.2373   -5.5402 H         1 UNK         0.0770 
    107 H107       27.0257    1.6042   -4.1912 H         1 UNK         0.0814 
    108 H108       28.7125    2.0484   -3.9650 H         1 UNK         0.0814 
    109 H109       28.1455    0.4762   -3.4269 H         1 UNK         0.0814 
    110 H110       26.3691    1.5015   -6.8944 H         1 UNK         0.2983 
    111 H111       27.5777    3.7426   -8.2571 H         1 UNK         0.0947 
    112 H112       25.3771    3.8428   -9.4360 H         1 UNK         0.0806 
    113 H113       25.1666    3.7167   -7.6961 H         1 UNK         0.0806 
    114 H114       24.9058    2.3077   -8.7184 H         1 UNK         0.0806 
    115 H115       26.5026    0.4691   -9.3589 H         1 UNK         0.3000 
    116 H116       27.2274    0.8007  -12.0555 H         1 UNK         0.0850 
    117 H117       26.9390   -1.6844  -12.1789 H         1 UNK         0.0810 
    118 H118       25.6299   -0.9196  -11.2928 H         1 UNK         0.0810 
    119 H119       26.9044   -1.7705  -10.4225 H         1 UNK         0.0810 
    120 H120       29.1132   -0.7458   -9.3987 H         1 UNK         0.3040 
    121 H121       31.4032   -1.2909  -11.1417 H         1 UNK         0.0766 
    122 H122       30.7714   -2.8175   -9.2621 H         1 UNK         0.0812 
    123 H123       31.0674   -1.5257   -8.1029 H         1 UNK         0.0812 
    124 H124       32.3956   -2.1820   -9.0469 H         1 UNK         0.0812 
    125 H125       30.2745    1.4534   -9.4877 H         1 UNK         0.3205 
    126 H126       31.0025    3.4444   -8.9447 H         1 UNK         0.0754 
    127 H127       32.8646    4.4897  -10.1586 H         1 UNK         0.0769 
    128 H128       31.9454    3.4885  -11.2685 H         1 UNK         0.0769 
    129 H129       33.4962    2.9248  -10.6454 H         1 UNK         0.0769 
    130 H130       31.8494    1.0358   -7.3203 H         1 UNK         0.2981 
    131 H131       34.2195    1.9800   -5.8937 H         1 UNK         0.0541 
    132 H132       30.8562    2.7908   -5.6699 H         1 UNK         0.3459 
    133 H133       30.9707    3.4572   -4.0545 H         1 UNK         0.3459 
    134 H134       34.0157   -0.0442   -4.5318 H         1 UNK         0.0612 
    135 H135       34.0398   -0.4122   -6.2343 H         1 UNK         0.0612 
    136 H136       33.4629   -2.6077   -4.6043 H         1 UNK         0.0624 
    137 H137       32.8262   -2.9179   -6.2031 H         1 UNK         0.0624 
@<TRIPOS>BOND
     1    1    2 1    
     2    1   72 1    
     3    1   73 1    
     4    1   74 1    
     5    2    3 2    
     6    2    4 am   BACKBONE|DICT|INTERRES
     7    4    5 1    
     8    4   75 1    
     9    5    6 1    
    10    5   35 1    
    11    5   76 1    
    12    6    7 1    
    13    6   77 1    
    14    6   78 1    
    15    7    8 1    
    16    8    9 1    
    17    8   79 1    
    18    8   80 1    
    19    9   10 ar   
    20    9   14 ar   
    21   10   11 ar   
    22   10   81 1    
    23   11   12 ar   
    24   11   71 1    
    25   12   13 ar   
    26   12   82 1    
    27   13   14 ar   
    28   13   15 1    
    29   14   83 1    
    30   15   16 1    
    31   15   84 1    
    32   15   85 1    
    33   16   17 1    
    34   17   18 1    
    35   17   86 1    
    36   17   87 1    
    37   18   19 1    
    38   18   37 1    
    39   18   88 1    
    40   19   20 am   BACKBONE|DICT|INTERRES
    41   19   89 1    
    42   20   21 2    
    43   20   22 1    
    44   22   23 1    
    45   22   24 1    
    46   22   90 1    
    47   23   91 1    
    48   23   92 1    
    49   23   93 1    
    50   24   25 am   BACKBONE|DICT|INTERRES
    51   24   94 1    
    52   25   26 2    
    53   25   27 1    
    54   27   28 1    
    55   27   29 1    
    56   27   95 1    
    57   28   96 1    
    58   28   97 1    
    59   28   98 1    
    60   29   30 am   BACKBONE|DICT|INTERRES
    61   29   99 1    
    62   30   31 2    
    63   30   32 1    
    64   32   33 1    
    65   32   34 1    
    66   32  100 1    
    67   33  101 1    
    68   33  102 1    
    69   33  103 1    
    70   34   35 am   BACKBONE|DICT|INTERRES
    71   34  104 1    
    72   35   36 2    
    73   37   38 2    
    74   37   39 am   BACKBONE|DICT|INTERRES
    75   39   40 1    
    76   39  105 1    
    77   40   41 1    
    78   40   42 1    
    79   40  106 1    
    80   41  107 1    
    81   41  108 1    
    82   41  109 1    
    83   42   43 2    
    84   42   44 am   BACKBONE|DICT|INTERRES
    85   44   45 1    
    86   44  110 1    
    87   45   46 1    
    88   45   47 1    
    89   45  111 1    
    90   46  112 1    
    91   46  113 1    
    92   46  114 1    
    93   47   48 2    
    94   47   49 am   BACKBONE|DICT|INTERRES
    95   49   50 1    
    96   49  115 1    
    97   50   51 1    
    98   50   52 1    
    99   50  116 1    
   100   51  117 1    
   101   51  118 1    
   102   51  119 1    
   103   52   53 2    
   104   52   54 am   BACKBONE|DICT|INTERRES
   105   54   55 1    
   106   54  120 1    
   107   55   56 1    
   108   55   57 1    
   109   55  121 1    
   110   56  122 1    
   111   56  123 1    
   112   56  124 1    
   113   57   58 2    
   114   57   59 am   BACKBONE|DICT|INTERRES
   115   59   60 1    
   116   59  125 1    
   117   60   61 1    
   118   60   62 1    
   119   60  126 1    
   120   61  127 1    
   121   61  128 1    
   122   61  129 1    
   123   62   63 2    
   124   62   64 am   BACKBONE|DICT|INTERRES
   125   64   65 1    
   126   64  130 1    
   127   65   66 1    
   128   65   69 1    
   129   65  131 1    
   130   66   67 am   BACKBONE|DICT|INTERRES
   131   66   68 2    
   132   67  132 1    
   133   67  133 1    
   134   69   70 1    
   135   69  134 1    
   136   69  135 1    
   137   70   71 1    
   138   71  136 1    
   139   71  137 1    
@<TRIPOS>SUBSTRUCTURE
     1 UNK         1 GROUP             0       ****    0 ROOT    
