@<TRIPOS>MOLECULE
3R137
137   139    1
SMALL
USER_CHARGES


@<TRIPOS>ATOM
      1 CA         23.6285   -2.8126    0.3881 C.3       0 UNK        -0.2020 
      2 C          25.0547   -2.4767   -0.0180 C.2       0 UNK         0.4855 
      3 O          25.4688   -1.3227    0.0933 O.2       0 UNK        -0.5197 
      4 N          25.8163   -3.4744   -0.4856 N.am      1 UNK        -0.4892 
      5 CA         27.2200   -3.3209   -0.8812 C.3       1 UNK         0.0835 
      6 C6         27.9255   -4.6892   -1.0413 C.3       12 UNK        -0.0855 
      7 S7         29.7136   -4.5676   -0.6888 S.3       12 UNK        -0.2931 
      8 C8         30.4472   -5.5767   -2.0145 C.3       12 UNK         0.0378 
      9 C9         30.3161   -4.9172   -3.3791 C.ar      12 UNK        -0.0802 
     10 C10        31.1540   -3.8542   -3.7323 C.ar      12 UNK        -0.0944 
     11 C11        31.0445   -3.2524   -4.9900 C.ar      12 UNK        -0.0787 
     12 C12        30.0976   -3.7307   -5.8985 C.ar      12 UNK        -0.0862 
     13 C13        29.2426   -4.7799   -5.5499 C.ar      12 UNK        -0.0733 
     14 C14        29.3627   -5.3758   -4.2926 C.ar      12 UNK        -0.0832 
     15 C15        28.1733   -5.2564   -6.5213 C.3       12 UNK         0.0240 
     16 S16        26.5792   -4.4339   -6.2057 S.3       12 UNK        -0.2522 
     17 C17        26.9994   -2.7175   -6.6502 C.3       12 UNK        -0.0967 
     18 CA         25.7626   -1.7947   -6.7454 C.3       5 UNK         0.0660 
     19 N          25.0718   -1.6770   -5.4580 N.am      5 UNK        -0.4015 
     20 C          23.7928   -1.3126   -5.2968 C.2       4 UNK         0.4946 
     21 O          23.0277   -1.0723   -6.2327 O.2       4 UNK        -0.5353 
     22 CA         23.3044   -1.1277   -3.8549 C.3       4 UNK         0.0277 
     23 CB         23.0150   -2.4842   -3.1935 C.3       4 UNK        -0.1981 
     24 N          24.2773   -0.3642   -3.0691 N.am      4 UNK        -0.4209 
     25 C          24.4206    0.9682   -3.1507 C.2       3 UNK         0.4942 
     26 O          23.6674    1.6978   -3.7964 O.2       3 UNK        -0.5208 
     27 CA         25.6074    1.6018   -2.4037 C.3       3 UNK         0.0250 
     28 CB         25.1953    2.0309   -0.9866 C.3       3 UNK        -0.1990 
     29 N          26.7691    0.7119   -2.3375 N.am      3 UNK        -0.4232 
     30 C          27.5820    0.4626   -3.3766 C.2       2 UNK         0.4993 
     31 O          27.4819    1.0257   -4.4653 O.2       2 UNK        -0.5286 
     32 CA         28.6842   -0.5979   -3.1835 C.3       2 UNK         0.0209 
     33 CB         30.0275    0.0777   -2.8704 C.3       2 UNK        -0.1931 
     34 N          28.3981   -1.5807   -2.1348 N.am      2 UNK        -0.4546 
     35 C          27.3626   -2.4290   -2.1333 C.2       1 UNK         0.5154 
     36 O          26.5252   -2.4861   -3.0391 O.2       1 UNK        -0.5181 
     37 C          26.1288   -0.4025   -7.3086 C.2       5 UNK         0.5014 
     38 O          27.3027   -0.1255   -7.5653 O.2       5 UNK        -0.5248 
     39 N          25.1165    0.4476   -7.5257 N.am      6 UNK        -0.4434 
     40 CA         25.2452    1.8195   -8.0313 C.3       6 UNK         0.0363 
     41 CB         23.8696    2.5025   -7.9843 C.3       6 UNK        -0.1936 
     42 C          25.8564    1.9235   -9.4424 C.2       6 UNK         0.5081 
     43 O          26.3901    2.9757   -9.7910 O.2       6 UNK        -0.5248 
     44 N          25.7913    0.8336  -10.2202 N.am      7 UNK        -0.4718 
     45 CA         26.4749    0.6887  -11.5073 C.3       7 UNK         0.0273 
     46 CB         25.8656   -0.4989  -12.2699 C.3       7 UNK        -0.1935 
     47 C          27.9995    0.5112  -11.3651 C.2       7 UNK         0.5018 
     48 O          28.7274    0.8599  -12.2953 O.2       7 UNK        -0.5186 
     49 N          28.4542   -0.0263  -10.2233 N.am      8 UNK        -0.4240 
     50 CA         29.8690   -0.1817   -9.8842 C.3       8 UNK         0.0235 
     51 CB         30.0696   -1.4470   -9.0351 C.3       8 UNK        -0.2000 
     52 C          30.3827    1.0562   -9.1392 C.2       8 UNK         0.4941 
     53 O          31.4583    1.5488   -9.4808 O.2       8 UNK        -0.5273 
     54 N          29.6040    1.5352   -8.1537 N.am      9 UNK        -0.4262 
     55 CA         29.8144    2.7392   -7.3383 C.3       9 UNK         0.0264 
     56 CB         29.5085    4.0069   -8.1655 C.3       9 UNK        -0.1955 
     57 C          31.1998    2.7790   -6.6647 C.2       9 UNK         0.5031 
     58 O          31.3611    2.2230   -5.5791 O.2       9 UNK        -0.5390 
     59 N          32.1773    3.4125   -7.3293 N.am      10 UNK        -0.4204 
     60 CA         33.5885    3.4587   -6.9338 C.3       10 UNK         0.0237 
     61 CB         34.3218    4.4839   -7.8145 C.3       10 UNK        -0.1985 
     62 C          34.2991    2.0909   -6.9909 C.2       10 UNK         0.4970 
     63 O          35.3485    1.9425   -6.3638 O.2       10 UNK        -0.4914 
     64 N          33.7205    1.1249   -7.7192 N.am      11 UNK        -0.4285 
     65 CA         34.1672   -0.2734   -7.8313 C.3       11 UNK         0.1007 
     66 C          35.4234   -0.4901   -8.7281 C.2       11 UNK         0.5703 
     67 N          35.8666    0.4994   -9.4950 N.am      11 UNK        -0.7361 
     68 O          35.9897   -1.5802   -8.7578 O.2       11 UNK        -0.4986 
     69 C69        34.2588   -0.9887   -6.4446 C.3       12 UNK        -0.0947 
     70 S70        33.3389   -2.5621   -6.3835 S.3       12 UNK        -0.2240 
     71 C71        31.9226   -2.0662   -5.3561 C.3       12 UNK         0.0194 
     72 H72        23.5699   -2.9458    1.4679 H         1 UNK         0.0906 
     73 H73        22.9552   -2.0017    0.1118 H         1 UNK         0.0906 
     74 H74        23.2759   -3.7259   -0.0908 H         1 UNK         0.0906 
     75 H75        25.4212   -4.3975   -0.5952 H         1 UNK         0.3140 
     76 H76        27.6960   -2.7959   -0.0490 H         1 UNK         0.1085 
     77 H77        27.5207   -5.4081   -0.3270 H         1 UNK         0.0836 
     78 H78        27.7392   -5.1177   -2.0269 H         1 UNK         0.0836 
     79 H79        29.9876   -6.5665   -2.0130 H         1 UNK         0.0731 
     80 H80        31.5038   -5.7335   -1.7922 H         1 UNK         0.0731 
     81 H81        31.8851   -3.4914   -3.0227 H         1 UNK         0.1312 
     82 H82        30.0132   -3.2732   -6.8724 H         1 UNK         0.1406 
     83 H83        28.7040   -6.1907   -4.0243 H         1 UNK         0.1631 
     84 H84        28.0400   -6.3350   -6.4263 H         1 UNK         0.0717 
     85 H85        28.4821   -5.0772   -7.5524 H         1 UNK         0.0717 
     86 H86        27.7023   -2.3249   -5.9144 H         1 UNK         0.0934 
     87 H87        27.5271   -2.7452   -7.6054 H         1 UNK         0.0934 
     88 H88        25.0738   -2.2466   -7.4626 H         1 UNK         0.0739 
     89 H89        25.6261   -1.8918   -4.6326 H         1 UNK         0.3093 
     90 H90        22.3659   -0.5698   -3.8921 H         1 UNK         0.0818 
     91 H91        22.3426   -3.0820   -3.8105 H         1 UNK         0.0819 
     92 H92        23.9210   -3.0708   -3.0399 H         1 UNK         0.0819 
     93 H93        22.5261   -2.3519   -2.2299 H         1 UNK         0.0819 
     94 H94        24.9602   -0.8952   -2.5443 H         1 UNK         0.3041 
     95 H95        25.8976    2.5006   -2.9527 H         1 UNK         0.0784 
     96 H96        24.3708    2.7443   -1.0224 H         1 UNK         0.0793 
     97 H97        24.8642    1.1851   -0.3842 H         1 UNK         0.0793 
     98 H98        26.0191    2.5155   -0.4623 H         1 UNK         0.0793 
     99 H99        26.9087    0.2043   -1.4742 H         1 UNK         0.3024 
    100 H100       28.7825   -1.1399   -4.1263 H         1 UNK         0.1171 
    101 H101       30.8286   -0.6540   -2.7702 H         1 UNK         0.0786 
    102 H102       30.3118    0.7613   -3.6703 H         1 UNK         0.0786 
    103 H103       29.9839    0.6566   -1.9471 H         1 UNK         0.0786 
    104 H104       29.0474   -1.6121   -1.3615 H         1 UNK         0.2977 
    105 H105       24.1846    0.1334   -7.2676 H         1 UNK         0.3127 
    106 H106       25.9159    2.3520   -7.3532 H         1 UNK         0.0770 
    107 H107       23.1453    1.9948   -8.6224 H         1 UNK         0.0814 
    108 H108       23.9351    3.5375   -8.3229 H         1 UNK         0.0814 
    109 H109       23.4709    2.5198   -6.9694 H         1 UNK         0.0814 
    110 H110       25.3040    0.0240   -9.8650 H         1 UNK         0.2983 
    111 H111       26.3040    1.5958  -12.0918 H         1 UNK         0.0947 
    112 H112       26.3354   -0.6162  -13.2476 H         1 UNK         0.0806 
    113 H113       24.7985   -0.3559  -12.4410 H         1 UNK         0.0806 
    114 H114       25.9980   -1.4378  -11.7307 H         1 UNK         0.0806 
    115 H115       27.7940   -0.2151   -9.4770 H         1 UNK         0.3000 
    116 H116       30.4541   -0.2955  -10.7996 H         1 UNK         0.0850 
    117 H117       31.1280   -1.6225   -8.8401 H         1 UNK         0.0810 
    118 H118       29.6823   -2.3315   -9.5409 H         1 UNK         0.0810 
    119 H119       29.5723   -1.3657   -8.0692 H         1 UNK         0.0810 
    120 H120       28.7714    0.9990   -7.9157 H         1 UNK         0.3040 
    121 H121       29.0827    2.6904   -6.5296 H         1 UNK         0.0766 
    122 H122       30.0957    4.0591   -9.0827 H         1 UNK         0.0812 
    123 H123       29.7068    4.9121   -7.5899 H         1 UNK         0.0812 
    124 H124       28.4576    4.0375   -8.4512 H         1 UNK         0.0812 
    125 H125       31.9509    3.7895   -8.2388 H         1 UNK         0.3205 
    126 H126       33.6325    3.8009   -5.8978 H         1 UNK         0.0754 
    127 H127       35.3711    4.5669   -7.5275 H         1 UNK         0.0769 
    128 H128       33.8828    5.4771   -7.7169 H         1 UNK         0.0769 
    129 H129       34.2930    4.2051   -8.8687 H         1 UNK         0.0769 
    130 H130       32.8914    1.3591   -8.2597 H         1 UNK         0.2981 
    131 H131       33.3646   -0.7424   -8.4000 H         1 UNK         0.0541 
    132 H132       36.6727    0.3477  -10.0806 H         1 UNK         0.3459 
    133 H133       35.4034    1.3935   -9.4922 H         1 UNK         0.3459 
    134 H134       33.8766   -0.3477   -5.6492 H         1 UNK         0.0612 
    135 H135       35.2946   -1.1848   -6.1617 H         1 UNK         0.0612 
    136 H136       32.2908   -1.5851   -4.4491 H         1 UNK         0.0624 
    137 H137       31.3348   -1.3152   -5.8871 H         1 UNK         0.0624 
@<TRIPOS>BOND
     1    1    2 1    
     2    1   72 1    
     3    1   73 1    
     4    1   74 1    
     5    2    3 2    
     6    2    4 am   BACKBONE|DICT|INTERRES
     7    4    5 1    
     8    4   75 1    
     9    5    6 1    
    10    5   35 1    
    11    5   76 1    
    12    6    7 1    
    13    6   77 1    
    14    6   78 1    
    15    7    8 1    
    16    8    9 1    
    17    8   79 1    
    18    8   80 1    
    19    9   10 ar   
    20    9   14 ar   
    21   10   11 ar   
    22   10   81 1    
    23   11   12 ar   
    24   11   71 1    
    25   12   13 ar   
    26   12   82 1    
    27   13   14 ar   
    28   13   15 1    
    29   14   83 1    
    30   15   16 1    
    31   15   84 1    
    32   15   85 1    
    33   16   17 1    
    34   17   18 1    
    35   17   86 1    
    36   17   87 1    
    37   18   19 1    
    38   18   37 1    
    39   18   88 1    
    40   19   20 am   BACKBONE|DICT|INTERRES
    41   19   89 1    
    42   20   21 2    
    43   20   22 1    
    44   22   23 1    
    45   22   24 1    
    46   22   90 1    
    47   23   91 1    
    48   23   92 1    
    49   23   93 1    
    50   24   25 am   BACKBONE|DICT|INTERRES
    51   24   94 1    
    52   25   26 2    
    53   25   27 1    
    54   27   28 1    
    55   27   29 1    
    56   27   95 1    
    57   28   96 1    
    58   28   97 1    
    59   28   98 1    
    60   29   30 am   BACKBONE|DICT|INTERRES
    61   29   99 1    
    62   30   31 2    
    63   30   32 1    
    64   32   33 1    
    65   32   34 1    
    66   32  100 1    
    67   33  101 1    
    68   33  102 1    
    69   33  103 1    
    70   34   35 am   BACKBONE|DICT|INTERRES
    71   34  104 1    
    72   35   36 2    
    73   37   38 2    
    74   37   39 am   BACKBONE|DICT|INTERRES
    75   39   40 1    
    76   39  105 1    
    77   40   41 1    
    78   40   42 1    
    79   40  106 1    
    80   41  107 1    
    81   41  108 1    
    82   41  109 1    
    83   42   43 2    
    84   42   44 am   BACKBONE|DICT|INTERRES
    85   44   45 1    
    86   44  110 1    
    87   45   46 1    
    88   45   47 1    
    89   45  111 1    
    90   46  112 1    
    91   46  113 1    
    92   46  114 1    
    93   47   48 2    
    94   47   49 am   BACKBONE|DICT|INTERRES
    95   49   50 1    
    96   49  115 1    
    97   50   51 1    
    98   50   52 1    
    99   50  116 1    
   100   51  117 1    
   101   51  118 1    
   102   51  119 1    
   103   52   53 2    
   104   52   54 am   BACKBONE|DICT|INTERRES
   105   54   55 1    
   106   54  120 1    
   107   55   56 1    
   108   55   57 1    
   109   55  121 1    
   110   56  122 1    
   111   56  123 1    
   112   56  124 1    
   113   57   58 2    
   114   57   59 am   BACKBONE|DICT|INTERRES
   115   59   60 1    
   116   59  125 1    
   117   60   61 1    
   118   60   62 1    
   119   60  126 1    
   120   61  127 1    
   121   61  128 1    
   122   61  129 1    
   123   62   63 2    
   124   62   64 am   BACKBONE|DICT|INTERRES
   125   64   65 1    
   126   64  130 1    
   127   65   66 1    
   128   65   69 1    
   129   65  131 1    
   130   66   67 am   BACKBONE|DICT|INTERRES
   131   66   68 2    
   132   67  132 1    
   133   67  133 1    
   134   69   70 1    
   135   69  134 1    
   136   69  135 1    
   137   70   71 1    
   138   71  136 1    
   139   71  137 1    
@<TRIPOS>SUBSTRUCTURE
     1 UNK         1 GROUP             0       ****    0 ROOT    
