@<TRIPOS>MOLECULE
3R137
137   139    1
SMALL
USER_CHARGES


@<TRIPOS>ATOM
      1 CA         31.0084    2.3522   -4.1372 C.3       0 UNK        -0.2020 
      2 C          30.5927    1.2980   -3.1227 C.2       0 UNK         0.4855 
      3 O          30.9284    1.4242   -1.9452 O.2       0 UNK        -0.5197 
      4 N          29.8670    0.2702   -3.5836 N.am      1 UNK        -0.4892 
      5 CA         29.2020   -0.7785   -2.7988 C.3       1 UNK         0.0835 
      6 C6         30.1053   -1.5089   -1.7704 C.3       12 UNK        -0.0855 
      7 S7         29.4693   -3.1752   -1.3713 S.3       12 UNK        -0.2931 
      8 C8         30.8761   -4.2617   -1.7869 C.3       12 UNK         0.0378 
      9 C9         31.1423   -4.4117   -3.2837 C.ar      12 UNK        -0.0802 
     10 C10        32.4614   -4.4179   -3.7468 C.ar      12 UNK        -0.0944 
     11 C11        32.7497   -4.6234   -5.1022 C.ar      12 UNK        -0.0787 
     12 C12        31.6889   -4.8113   -5.9929 C.ar      12 UNK        -0.0862 
     13 C13        30.3590   -4.7871   -5.5601 C.ar      12 UNK        -0.0733 
     14 C14        30.0979   -4.6133   -4.1936 C.ar      12 UNK        -0.0832 
     15 C15        29.2554   -4.9679   -6.6105 C.3       12 UNK         0.0240 
     16 S16        27.5572   -4.5051   -6.1083 S.3       12 UNK        -0.2522 
     17 C17        27.7537   -2.7527   -5.6492 C.3       12 UNK        -0.0967 
     18 CA         27.0938   -1.7546   -6.6247 C.3       5 UNK         0.0660 
     19 N          25.6501   -1.9743   -6.7423 N.am      5 UNK        -0.4015 
     20 C          24.9048   -1.5447   -7.7693 C.2       4 UNK         0.4946 
     21 O          25.3605   -0.9157   -8.7223 O.2       4 UNK        -0.5353 
     22 CA         23.3896   -1.8048   -7.7021 C.3       4 UNK         0.0277 
     23 CB         23.0542   -3.1769   -8.3070 C.3       4 UNK        -0.1981 
     24 N          22.8357   -1.7157   -6.3479 N.am      4 UNK        -0.4209 
     25 C          22.9130   -0.6370   -5.5561 C.2       3 UNK         0.4942 
     26 O          23.4518    0.4167   -5.8999 O.2       3 UNK        -0.5208 
     27 CA         22.3535   -0.7581   -4.1242 C.3       3 UNK         0.0250 
     28 CB         21.6011   -2.0804   -3.8477 C.3       3 UNK        -0.1990 
     29 N          23.3974   -0.5504   -3.1104 N.am      3 UNK        -0.4232 
     30 C          24.5630   -1.2074   -3.0159 C.2       2 UNK         0.4993 
     31 O          24.9260   -2.0900   -3.8001 O.2       2 UNK        -0.5286 
     32 CA         25.4732   -0.8254   -1.8418 C.3       2 UNK         0.0209 
     33 CB         25.1032   -1.6365   -0.5891 C.3       2 UNK        -0.1931 
     34 N          26.8534   -1.1285   -2.2123 N.am      2 UNK        -0.4546 
     35 C          27.8773   -0.2687   -2.1871 C.2       1 UNK         0.5154 
     36 O          27.7943    0.8708   -1.7243 O.2       1 UNK        -0.5181 
     37 C          27.4389   -0.3035   -6.2177 C.2       5 UNK         0.5014 
     38 O          28.5858    0.1116   -6.4058 O.2       5 UNK        -0.5248 
     39 N          26.4763    0.4455   -5.6582 N.am      6 UNK        -0.4434 
     40 CA         26.6088    1.8842   -5.4205 C.3       6 UNK         0.0363 
     41 CB         25.6961    2.3384   -4.2701 C.3       6 UNK        -0.1936 
     42 C          26.2882    2.6577   -6.7048 C.2       6 UNK         0.5081 
     43 O          27.0487    3.5505   -7.0738 O.2       6 UNK        -0.5248 
     44 N          25.1996    2.2688   -7.3866 N.am      7 UNK        -0.4718 
     45 CA         24.7592    2.8361   -8.6658 C.3       7 UNK         0.0273 
     46 CB         23.4056    2.2239   -9.0590 C.3       7 UNK        -0.1935 
     47 C          25.7884    2.6577   -9.7961 C.2       7 UNK         0.5018 
     48 O          26.0190    3.5968  -10.5583 O.2       7 UNK        -0.5186 
     49 N          26.4143    1.4740   -9.8588 N.am      8 UNK        -0.4240 
     50 CA         27.5139    1.1582  -10.7746 C.3       8 UNK         0.0235 
     51 CB         27.6555   -0.3700  -10.8788 C.3       8 UNK        -0.2000 
     52 C          28.8614    1.7850  -10.3681 C.2       8 UNK         0.4941 
     53 O          29.7820    1.7700  -11.1860 O.2       8 UNK        -0.5273 
     54 N          28.9623    2.2984   -9.1302 N.am      9 UNK        -0.4262 
     55 CA         30.1567    2.8583   -8.4868 C.3       9 UNK         0.0264 
     56 CB         30.5592    4.1938   -9.1473 C.3       9 UNK        -0.1955 
     57 C          31.3082    1.8370   -8.4273 C.2       9 UNK         0.5031 
     58 O          32.3891    2.0842   -8.9684 O.2       9 UNK        -0.5390 
     59 N          31.0293    0.6862   -7.7999 N.am      10 UNK        -0.4204 
     60 CA         31.9568   -0.4365   -7.6501 C.3       10 UNK         0.0237 
     61 CB         31.1429   -1.7048   -7.3484 C.3       10 UNK        -0.1985 
     62 C          33.0480   -0.1826   -6.5882 C.2       10 UNK         0.4970 
     63 O          33.1878    0.9349   -6.0885 O.2       10 UNK        -0.4914 
     64 N          33.8200   -1.2315   -6.2740 N.am      11 UNK        -0.4285 
     65 CA         34.9878   -1.1786   -5.3785 C.3       11 UNK         0.1007 
     66 C          34.7032   -0.8319   -3.8856 C.2       11 UNK         0.5703 
     67 N          33.4663   -0.9096   -3.4127 N.am      11 UNK        -0.7361 
     68 O          35.6224   -0.4726   -3.1533 O.2       11 UNK        -0.4986 
     69 C69        35.8986   -2.4251   -5.5661 C.3       12 UNK        -0.0947 
     70 S70        35.4551   -3.9154   -4.6034 S.3       12 UNK        -0.2240 
     71 C71        34.1830   -4.7253   -5.6340 C.3       12 UNK         0.0194 
     72 H72        32.0898    2.4852   -4.1165 H         1 UNK         0.0906 
     73 H73        30.5419    3.3075   -3.8990 H         1 UNK         0.0906 
     74 H74        30.7224    2.0771   -5.1519 H         1 UNK         0.0906 
     75 H75        29.6147    0.2732   -4.5662 H         1 UNK         0.3140 
     76 H76        28.9426   -1.5166   -3.5499 H         1 UNK         0.1085 
     77 H77        30.2048   -0.9317   -0.8493 H         1 UNK         0.0836 
     78 H78        31.1131   -1.6124   -2.1707 H         1 UNK         0.0836 
     79 H79        31.7633   -3.8921   -1.2699 H         1 UNK         0.0731 
     80 H80        30.6765   -5.2528   -1.3777 H         1 UNK         0.0731 
     81 H81        33.2645   -4.2951   -3.0343 H         1 UNK         0.1312 
     82 H82        31.9008   -4.9845   -7.0396 H         1 UNK         0.1406 
     83 H83        29.0818   -4.6362   -3.8269 H         1 UNK         0.1631 
     84 H84        29.2440   -6.0140   -6.9189 H         1 UNK         0.0717 
     85 H85        29.5075   -4.3887   -7.5002 H         1 UNK         0.0717 
     86 H86        27.3303   -2.6431   -4.6521 H         1 UNK         0.0934 
     87 H87        28.8170   -2.5353   -5.5633 H         1 UNK         0.0934 
     88 H88        27.5394   -1.9135   -7.6091 H         1 UNK         0.0739 
     89 H89        25.2023   -2.4323   -5.9565 H         1 UNK         0.3093 
     90 H90        22.8996   -1.0380   -8.3050 H         1 UNK         0.0818 
     91 H91        23.4377   -3.2575   -9.3253 H         1 UNK         0.0819 
     92 H92        23.4912   -3.9924   -7.7291 H         1 UNK         0.0819 
     93 H93        21.9770   -3.3377   -8.3558 H         1 UNK         0.0819 
     94 H94        22.3986   -2.5473   -5.9779 H         1 UNK         0.3041 
     95 H95        21.6400    0.0596   -4.0114 H         1 UNK         0.0784 
     96 H96        20.7761   -2.2232   -4.5472 H         1 UNK         0.0793 
     97 H97        22.2549   -2.9512   -3.9139 H         1 UNK         0.0793 
     98 H98        21.1673   -2.0768   -2.8476 H         1 UNK         0.0793 
     99 H99        23.1986    0.1727   -2.4329 H         1 UNK         0.3024 
    100 H100       25.3520    0.2392   -1.6305 H         1 UNK         0.1171 
    101 H101       24.0783   -1.4324   -0.2764 H         1 UNK         0.0786 
    102 H102       25.1843   -2.7102   -0.7645 H         1 UNK         0.0786 
    103 H103       25.7538   -1.3857    0.2490 H         1 UNK         0.0786 
    104 H104       26.9814   -2.0457   -2.6173 H         1 UNK         0.2977 
    105 H105       25.5456    0.0572   -5.5624 H         1 UNK         0.3127 
    106 H106       27.6383    2.1111   -5.1337 H         1 UNK         0.0770 
    107 H107       24.6400    2.1840   -4.4879 H         1 UNK         0.0814 
    108 H108       25.8299    3.4026   -4.0719 H         1 UNK         0.0814 
    109 H109       25.9281    1.8124   -3.3475 H         1 UNK         0.0814 
    110 H110       24.6076    1.5492   -6.9801 H         1 UNK         0.2983 
    111 H111       24.6190    3.9089   -8.5164 H         1 UNK         0.0947 
    112 H112       23.4832    1.1500   -9.2294 H         1 UNK         0.0806 
    113 H113       23.0272    2.6730   -9.9782 H         1 UNK         0.0806 
    114 H114       22.6554    2.3867   -8.2849 H         1 UNK         0.0806 
    115 H115       26.0949    0.7178   -9.2559 H         1 UNK         0.3000 
    116 H116       27.2596    1.5459  -11.7634 H         1 UNK         0.0850 
    117 H117       28.4313   -0.6451  -11.5947 H         1 UNK         0.0810 
    118 H118       26.7273   -0.8329  -11.2144 H         1 UNK         0.0810 
    119 H119       27.9241   -0.8148   -9.9198 H         1 UNK         0.0810 
    120 H120       28.1300    2.3006   -8.5544 H         1 UNK         0.3040 
    121 H121       29.8786    3.0743   -7.4539 H         1 UNK         0.0766 
    122 H122       30.8660    4.0592  -10.1850 H         1 UNK         0.0812 
    123 H123       31.3953    4.6525   -8.6183 H         1 UNK         0.0812 
    124 H124       29.7342    4.9060   -9.1310 H         1 UNK         0.0812 
    125 H125       30.1140    0.5700   -7.3697 H         1 UNK         0.3205 
    126 H126       32.4617   -0.5779   -8.6080 H         1 UNK         0.0754 
    127 H127       31.7321   -2.5953   -7.5591 H         1 UNK         0.0769 
    128 H128       30.2478   -1.7691   -7.9679 H         1 UNK         0.0769 
    129 H129       30.8343   -1.7443   -6.3036 H         1 UNK         0.0769 
    130 H130       33.6273   -2.1260   -6.6960 H         1 UNK         0.2981 
    131 H131       35.5736   -0.3314   -5.7411 H         1 UNK         0.0541 
    132 H132       33.2922   -0.6613   -2.4527 H         1 UNK         0.3459 
    133 H133       32.7143   -1.2067   -4.0107 H         1 UNK         0.3459 
    134 H134       36.9129   -2.1607   -5.2624 H         1 UNK         0.0612 
    135 H135       35.9828   -2.6877   -6.6218 H         1 UNK         0.0612 
    136 H136       34.4370   -5.7835   -5.7041 H         1 UNK         0.0624 
    137 H137       34.2362   -4.3341   -6.6507 H         1 UNK         0.0624 
@<TRIPOS>BOND
     1    1    2 1    
     2    1   72 1    
     3    1   73 1    
     4    1   74 1    
     5    2    3 2    
     6    2    4 am   BACKBONE|DICT|INTERRES
     7    4    5 1    
     8    4   75 1    
     9    5    6 1    
    10    5   35 1    
    11    5   76 1    
    12    6    7 1    
    13    6   77 1    
    14    6   78 1    
    15    7    8 1    
    16    8    9 1    
    17    8   79 1    
    18    8   80 1    
    19    9   10 ar   
    20    9   14 ar   
    21   10   11 ar   
    22   10   81 1    
    23   11   12 ar   
    24   11   71 1    
    25   12   13 ar   
    26   12   82 1    
    27   13   14 ar   
    28   13   15 1    
    29   14   83 1    
    30   15   16 1    
    31   15   84 1    
    32   15   85 1    
    33   16   17 1    
    34   17   18 1    
    35   17   86 1    
    36   17   87 1    
    37   18   19 1    
    38   18   37 1    
    39   18   88 1    
    40   19   20 am   BACKBONE|DICT|INTERRES
    41   19   89 1    
    42   20   21 2    
    43   20   22 1    
    44   22   23 1    
    45   22   24 1    
    46   22   90 1    
    47   23   91 1    
    48   23   92 1    
    49   23   93 1    
    50   24   25 am   BACKBONE|DICT|INTERRES
    51   24   94 1    
    52   25   26 2    
    53   25   27 1    
    54   27   28 1    
    55   27   29 1    
    56   27   95 1    
    57   28   96 1    
    58   28   97 1    
    59   28   98 1    
    60   29   30 am   BACKBONE|DICT|INTERRES
    61   29   99 1    
    62   30   31 2    
    63   30   32 1    
    64   32   33 1    
    65   32   34 1    
    66   32  100 1    
    67   33  101 1    
    68   33  102 1    
    69   33  103 1    
    70   34   35 am   BACKBONE|DICT|INTERRES
    71   34  104 1    
    72   35   36 2    
    73   37   38 2    
    74   37   39 am   BACKBONE|DICT|INTERRES
    75   39   40 1    
    76   39  105 1    
    77   40   41 1    
    78   40   42 1    
    79   40  106 1    
    80   41  107 1    
    81   41  108 1    
    82   41  109 1    
    83   42   43 2    
    84   42   44 am   BACKBONE|DICT|INTERRES
    85   44   45 1    
    86   44  110 1    
    87   45   46 1    
    88   45   47 1    
    89   45  111 1    
    90   46  112 1    
    91   46  113 1    
    92   46  114 1    
    93   47   48 2    
    94   47   49 am   BACKBONE|DICT|INTERRES
    95   49   50 1    
    96   49  115 1    
    97   50   51 1    
    98   50   52 1    
    99   50  116 1    
   100   51  117 1    
   101   51  118 1    
   102   51  119 1    
   103   52   53 2    
   104   52   54 am   BACKBONE|DICT|INTERRES
   105   54   55 1    
   106   54  120 1    
   107   55   56 1    
   108   55   57 1    
   109   55  121 1    
   110   56  122 1    
   111   56  123 1    
   112   56  124 1    
   113   57   58 2    
   114   57   59 am   BACKBONE|DICT|INTERRES
   115   59   60 1    
   116   59  125 1    
   117   60   61 1    
   118   60   62 1    
   119   60  126 1    
   120   61  127 1    
   121   61  128 1    
   122   61  129 1    
   123   62   63 2    
   124   62   64 am   BACKBONE|DICT|INTERRES
   125   64   65 1    
   126   64  130 1    
   127   65   66 1    
   128   65   69 1    
   129   65  131 1    
   130   66   67 am   BACKBONE|DICT|INTERRES
   131   66   68 2    
   132   67  132 1    
   133   67  133 1    
   134   69   70 1    
   135   69  134 1    
   136   69  135 1    
   137   70   71 1    
   138   71  136 1    
   139   71  137 1    
@<TRIPOS>SUBSTRUCTURE
     1 UNK         1 GROUP             0       ****    0 ROOT    
