@<TRIPOS>MOLECULE
3R137
137   139    1
SMALL
USER_CHARGES


@<TRIPOS>ATOM
      1 CA         26.7298   -2.2284    4.1651 C.3       0 UNK        -0.2020 
      2 C          26.9187   -1.4673    2.8610 C.2       0 UNK         0.4855 
      3 O          26.6348   -0.2703    2.8071 O.2       0 UNK        -0.5197 
      4 N          27.4063   -2.1521    1.8199 N.am      1 UNK        -0.4892 
      5 CA         27.6047   -1.6231    0.4686 C.3       1 UNK         0.0835 
      6 C6         28.9274   -2.1415   -0.1645 C.3       12 UNK        -0.0855 
      7 S7         29.1105   -3.9620   -0.1676 S.3       12 UNK        -0.2931 
      8 C8         30.7750   -4.1457   -0.8768 C.3       12 UNK         0.0378 
      9 C9         30.8310   -3.7056   -2.3331 C.ar      12 UNK        -0.0802 
     10 C10        31.5046   -2.5330   -2.6898 C.ar      12 UNK        -0.0944 
     11 C11        31.6037   -2.1568   -4.0317 C.ar      12 UNK        -0.0787 
     12 C12        31.0170   -2.9550   -5.0151 C.ar      12 UNK        -0.0862 
     13 C13        30.3214   -4.1202   -4.6747 C.ar      12 UNK        -0.0733 
     14 C14        30.2376   -4.4902   -3.3281 C.ar      12 UNK        -0.0832 
     15 C15        29.6954   -5.0157   -5.7436 C.3       12 UNK         0.0240 
     16 S16        29.0173   -4.1189   -7.1831 S.3       12 UNK        -0.2522 
     17 C17        27.6609   -3.1923   -6.4046 C.3       12 UNK        -0.0967 
     18 CA         27.1209   -2.0494   -7.3010 C.3       5 UNK         0.0660 
     19 N          25.6884   -1.8490   -7.0699 N.am      5 UNK        -0.4015 
     20 C          24.8638   -1.1499   -7.8595 C.2       4 UNK         0.4946 
     21 O          25.2148   -0.5929   -8.8981 O.2       4 UNK        -0.5353 
     22 CA         23.4023   -1.0320   -7.3933 C.3       4 UNK         0.0277 
     23 CB         22.5870   -2.2489   -7.8588 C.3       4 UNK        -0.1981 
     24 N          23.2770   -0.8806   -5.9401 N.am      4 UNK        -0.4209 
     25 C          23.6967    0.1971   -5.2624 C.2       3 UNK         0.4942 
     26 O          24.2098    1.1801   -5.7920 O.2       3 UNK        -0.5208 
     27 CA         23.5674    0.1587   -3.7327 C.3       3 UNK         0.0250 
     28 CB         22.1419    0.5376   -3.3004 C.3       3 UNK        -0.1990 
     29 N          23.9460   -1.1204   -3.1229 N.am      3 UNK        -0.4232 
     30 C          25.1320   -1.7278   -3.2678 C.2       2 UNK         0.4993 
     31 O          26.0189   -1.3441   -4.0342 O.2       2 UNK        -0.5286 
     32 CA         25.3812   -2.9674   -2.3966 C.3       2 UNK         0.0209 
     33 CB         25.7840   -4.1816   -3.2500 C.3       2 UNK        -0.1931 
     34 N          26.4398   -2.6934   -1.4271 N.am      2 UNK        -0.4546 
     35 C          26.3335   -1.8710   -0.3752 C.2       1 UNK         0.5154 
     36 O          25.2780   -1.3165   -0.0607 O.2       1 UNK        -0.5181 
     37 C          27.9058   -0.7333   -7.1120 C.2       5 UNK         0.5014 
     38 O          28.7844   -0.4120   -7.9182 O.2       5 UNK        -0.5248 
     39 N          27.5326    0.0247   -6.0699 N.am      6 UNK        -0.4434 
     40 CA         28.0244    1.3723   -5.7923 C.3       6 UNK         0.0363 
     41 CB         27.5558    1.8149   -4.3974 C.3       6 UNK        -0.1936 
     42 C          27.5998    2.3860   -6.8688 C.2       6 UNK         0.5081 
     43 O          28.4432    3.1542   -7.3280 O.2       6 UNK        -0.5248 
     44 N          26.3248    2.3523   -7.2868 N.am      7 UNK        -0.4718 
     45 CA         25.7712    3.1984   -8.3529 C.3       7 UNK         0.0273 
     46 CB         24.2450    3.0327   -8.4164 C.3       7 UNK        -0.1935 
     47 C          26.3982    2.9303   -9.7312 C.2       7 UNK         0.5018 
     48 O          26.6132    3.8759  -10.4901 O.2       7 UNK        -0.5186 
     49 N          26.7205    1.6597  -10.0129 N.am      8 UNK        -0.4240 
     50 CA         27.4884    1.2315  -11.1860 C.3       8 UNK         0.0235 
     51 CB         27.3552   -0.2925  -11.3457 C.3       8 UNK        -0.2000 
     52 C          28.9758    1.6338  -11.1325 C.2       8 UNK         0.4941 
     53 O          29.6495    1.5383  -12.1592 O.2       8 UNK        -0.5273 
     54 N          29.4596    2.0594   -9.9539 N.am      9 UNK        -0.4262 
     55 CA         30.8330    2.4601   -9.6364 C.3       9 UNK         0.0264 
     56 CB         31.2139    3.7580  -10.3796 C.3       9 UNK        -0.1955 
     57 C          31.8446    1.3211   -9.8494 C.2       9 UNK         0.5031 
     58 O          32.9472    1.5626  -10.3450 O.2       9 UNK        -0.5390 
     59 N          31.4621    0.0956   -9.4586 N.am      10 UNK        -0.4204 
     60 CA         32.2589   -1.1225   -9.6504 C.3       10 UNK         0.0237 
     61 CB         31.4118   -2.3417   -9.2644 C.3       10 UNK        -0.1985 
     62 C          33.6107   -1.1306   -8.9087 C.2       10 UNK         0.4970 
     63 O          34.5312   -1.8172   -9.3539 O.2       10 UNK        -0.4914 
     64 N          33.7152   -0.3558   -7.8214 N.am      11 UNK        -0.4285 
     65 CA         34.9688   -0.0879   -7.0979 C.3       11 UNK         0.1007 
     66 C          35.8420    1.0345   -7.7355 C.2       11 UNK         0.5703 
     67 N          35.4213    1.7022   -8.8042 N.am      11 UNK        -0.7361 
     68 O          36.9426    1.2980   -7.2565 O.2       11 UNK        -0.4986 
     69 C69        34.7114    0.1731   -5.5892 C.3       12 UNK        -0.0947 
     70 S70        34.1149   -1.3243   -4.7403 S.3       12 UNK        -0.2240 
     71 C71        32.3729   -0.9105   -4.4347 C.3       12 UNK         0.0194 
     72 H72        25.6821   -2.2058    4.4639 H         1 UNK         0.0906 
     73 H73        27.3201   -1.7683    4.9572 H         1 UNK         0.0906 
     74 H74        27.0348   -3.2711    4.0778 H         1 UNK         0.0906 
     75 H75        27.6131   -3.1366    1.9213 H         1 UNK         0.3140 
     76 H76        27.6993   -0.5362    0.5254 H         1 UNK         0.1085 
     77 H77        29.7694   -1.7268    0.3924 H         1 UNK         0.0836 
     78 H78        29.0399   -1.7602   -1.1816 H         1 UNK         0.0836 
     79 H79        31.4894   -3.5858   -0.2711 H         1 UNK         0.0731 
     80 H80        31.0736   -5.1927   -0.8074 H         1 UNK         0.0731 
     81 H81        31.9724   -1.9246   -1.9277 H         1 UNK         0.1312 
     82 H82        31.1170   -2.6683   -6.0503 H         1 UNK         0.1406 
     83 H83        29.7199   -5.3984   -3.0493 H         1 UNK         0.1631 
     84 H84        28.8981   -5.6226   -5.3113 H         1 UNK         0.0717 
     85 H85        30.4569   -5.7115   -6.0977 H         1 UNK         0.0717 
     86 H86        26.8751   -3.9232   -6.2072 H         1 UNK         0.0934 
     87 H87        27.9702   -2.8184   -5.4263 H         1 UNK         0.0934 
     88 H88        27.2280   -2.3431   -8.3477 H         1 UNK         0.0739 
     89 H89        25.3243   -2.2056   -6.1989 H         1 UNK         0.3093 
     90 H90        22.9785   -0.1412   -7.8616 H         1 UNK         0.0818 
     91 H91        22.6520   -2.3692   -8.9413 H         1 UNK         0.0819 
     92 H92        22.9430   -3.1753   -7.4064 H         1 UNK         0.0819 
     93 H93        21.5313   -2.1374   -7.6108 H         1 UNK         0.0819 
     94 H94        22.8594   -1.6431   -5.4264 H         1 UNK         0.3041 
     95 H95        24.2504    0.9125   -3.3355 H         1 UNK         0.0784 
     96 H96        21.8450    1.4951   -3.7312 H         1 UNK         0.0793 
     97 H97        21.4095   -0.2048   -3.6199 H         1 UNK         0.0793 
     98 H98        22.0690    0.6371   -2.2171 H         1 UNK         0.0793 
     99 H99        23.2913   -1.5027   -2.4553 H         1 UNK         0.3024 
    100 H100       24.4666   -3.2177   -1.8542 H         1 UNK         0.1171 
    101 H101       25.0539   -4.3709   -4.0380 H         1 UNK         0.0786 
    102 H102       26.7545   -4.0377   -3.7246 H         1 UNK         0.0786 
    103 H103       25.8460   -5.0849   -2.6427 H         1 UNK         0.0786 
    104 H104       27.3396   -3.1219   -1.6000 H         1 UNK         0.2977 
    105 H105       26.8474   -0.3542   -5.4190 H         1 UNK         0.3127 
    106 H106       29.1158    1.3309   -5.7863 H         1 UNK         0.0770 
    107 H107       26.4685    1.8610   -4.3315 H         1 UNK         0.0814 
    108 H108       27.9408    2.8057   -4.1530 H         1 UNK         0.0814 
    109 H109       27.9072    1.1291   -3.6261 H         1 UNK         0.0814 
    110 H110       25.6666    1.7383   -6.8106 H         1 UNK         0.2983 
    111 H111       25.9891    4.2367   -8.0937 H         1 UNK         0.0947 
    112 H112       23.9614    2.0034   -8.6372 H         1 UNK         0.0806 
    113 H113       23.8143    3.6648   -9.1941 H         1 UNK         0.0806 
    114 H114       23.7759    3.3153   -7.4739 H         1 UNK         0.0806 
    115 H115       26.4216    0.9282   -9.3739 H         1 UNK         0.3000 
    116 H116       27.0555    1.7080  -12.0680 H         1 UNK         0.0850 
    117 H117       27.8933   -0.6444  -12.2269 H         1 UNK         0.0810 
    118 H118       26.3129   -0.5890  -11.4641 H         1 UNK         0.0810 
    119 H119       27.7584   -0.8239  -10.4829 H         1 UNK         0.0810 
    120 H120       28.8167    2.1074   -9.1719 H         1 UNK         0.3040 
    121 H121       30.8471    2.6786   -8.5679 H         1 UNK         0.0766 
    122 H122       31.2767    3.6049  -11.4574 H         1 UNK         0.0812 
    123 H123       32.1845    4.1281  -10.0473 H         1 UNK         0.0812 
    124 H124       30.4858    4.5478  -10.1941 H         1 UNK         0.0812 
    125 H125       30.5414   -0.0196   -9.0434 H         1 UNK         0.3205 
    126 H126       32.4854   -1.1957  -10.7162 H         1 UNK         0.0754 
    127 H127       31.9761   -3.2694   -9.3689 H         1 UNK         0.0769 
    128 H128       30.5263   -2.4263   -9.8950 H         1 UNK         0.0769 
    129 H129       31.0758   -2.2735   -8.2320 H         1 UNK         0.0769 
    130 H130       32.9127    0.1836   -7.5376 H         1 UNK         0.2981 
    131 H131       35.5888   -0.9843   -7.1623 H         1 UNK         0.0541 
    132 H132       36.0160    2.4161   -9.1932 H         1 UNK         0.3459 
    133 H133       34.5303    1.5022   -9.2483 H         1 UNK         0.3459 
    134 H134       34.0087    0.9963   -5.4487 H         1 UNK         0.0612 
    135 H135       35.6316    0.4707   -5.0830 H         1 UNK         0.0612 
    136 H136       32.3088   -0.1504   -3.6546 H         1 UNK         0.0624 
    137 H137       31.9325   -0.4762   -5.3336 H         1 UNK         0.0624 
@<TRIPOS>BOND
     1    1    2 1    
     2    1   72 1    
     3    1   73 1    
     4    1   74 1    
     5    2    3 2    
     6    2    4 am   BACKBONE|DICT|INTERRES
     7    4    5 1    
     8    4   75 1    
     9    5    6 1    
    10    5   35 1    
    11    5   76 1    
    12    6    7 1    
    13    6   77 1    
    14    6   78 1    
    15    7    8 1    
    16    8    9 1    
    17    8   79 1    
    18    8   80 1    
    19    9   10 ar   
    20    9   14 ar   
    21   10   11 ar   
    22   10   81 1    
    23   11   12 ar   
    24   11   71 1    
    25   12   13 ar   
    26   12   82 1    
    27   13   14 ar   
    28   13   15 1    
    29   14   83 1    
    30   15   16 1    
    31   15   84 1    
    32   15   85 1    
    33   16   17 1    
    34   17   18 1    
    35   17   86 1    
    36   17   87 1    
    37   18   19 1    
    38   18   37 1    
    39   18   88 1    
    40   19   20 am   BACKBONE|DICT|INTERRES
    41   19   89 1    
    42   20   21 2    
    43   20   22 1    
    44   22   23 1    
    45   22   24 1    
    46   22   90 1    
    47   23   91 1    
    48   23   92 1    
    49   23   93 1    
    50   24   25 am   BACKBONE|DICT|INTERRES
    51   24   94 1    
    52   25   26 2    
    53   25   27 1    
    54   27   28 1    
    55   27   29 1    
    56   27   95 1    
    57   28   96 1    
    58   28   97 1    
    59   28   98 1    
    60   29   30 am   BACKBONE|DICT|INTERRES
    61   29   99 1    
    62   30   31 2    
    63   30   32 1    
    64   32   33 1    
    65   32   34 1    
    66   32  100 1    
    67   33  101 1    
    68   33  102 1    
    69   33  103 1    
    70   34   35 am   BACKBONE|DICT|INTERRES
    71   34  104 1    
    72   35   36 2    
    73   37   38 2    
    74   37   39 am   BACKBONE|DICT|INTERRES
    75   39   40 1    
    76   39  105 1    
    77   40   41 1    
    78   40   42 1    
    79   40  106 1    
    80   41  107 1    
    81   41  108 1    
    82   41  109 1    
    83   42   43 2    
    84   42   44 am   BACKBONE|DICT|INTERRES
    85   44   45 1    
    86   44  110 1    
    87   45   46 1    
    88   45   47 1    
    89   45  111 1    
    90   46  112 1    
    91   46  113 1    
    92   46  114 1    
    93   47   48 2    
    94   47   49 am   BACKBONE|DICT|INTERRES
    95   49   50 1    
    96   49  115 1    
    97   50   51 1    
    98   50   52 1    
    99   50  116 1    
   100   51  117 1    
   101   51  118 1    
   102   51  119 1    
   103   52   53 2    
   104   52   54 am   BACKBONE|DICT|INTERRES
   105   54   55 1    
   106   54  120 1    
   107   55   56 1    
   108   55   57 1    
   109   55  121 1    
   110   56  122 1    
   111   56  123 1    
   112   56  124 1    
   113   57   58 2    
   114   57   59 am   BACKBONE|DICT|INTERRES
   115   59   60 1    
   116   59  125 1    
   117   60   61 1    
   118   60   62 1    
   119   60  126 1    
   120   61  127 1    
   121   61  128 1    
   122   61  129 1    
   123   62   63 2    
   124   62   64 am   BACKBONE|DICT|INTERRES
   125   64   65 1    
   126   64  130 1    
   127   65   66 1    
   128   65   69 1    
   129   65  131 1    
   130   66   67 am   BACKBONE|DICT|INTERRES
   131   66   68 2    
   132   67  132 1    
   133   67  133 1    
   134   69   70 1    
   135   69  134 1    
   136   69  135 1    
   137   70   71 1    
   138   71  136 1    
   139   71  137 1    
@<TRIPOS>SUBSTRUCTURE
     1 UNK         1 GROUP             0       ****    0 ROOT    
