@<TRIPOS>MOLECULE
3R137
137   139    1
SMALL
USER_CHARGES


@<TRIPOS>ATOM
      1 CA         29.2516   -0.6561   -0.9494 C.3       0 UNK        -0.2020 
      2 C          29.5757   -1.5804    0.2243 C.2       0 UNK         0.4855 
      3 O          30.2564   -1.1523    1.1542 O.2       0 UNK        -0.5197 
      4 N          29.1326   -2.8463    0.2338 N.am      1 UNK        -0.4892 
      5 CA         28.2591   -3.4864   -0.7564 C.3       1 UNK         0.0835 
      6 C6         28.2238   -5.0299   -0.5927 C.3       12 UNK        -0.0855 
      7 S7         29.7610   -6.0093   -0.8346 S.3       12 UNK        -0.2931 
      8 C8         31.1185   -4.8835   -1.3347 C.3       12 UNK         0.0378 
      9 C9         30.8967   -4.0970   -2.6259 C.ar      12 UNK        -0.0802 
     10 C10        31.5773   -2.8867   -2.7969 C.ar      12 UNK        -0.0944 
     11 C11        31.3481   -2.0901   -3.9220 C.ar      12 UNK        -0.0787 
     12 C12        30.4231   -2.5075   -4.8807 C.ar      12 UNK        -0.0862 
     13 C13        29.7573   -3.7266   -4.7383 C.ar      12 UNK        -0.0733 
     14 C14        30.0144   -4.5295   -3.6249 C.ar      12 UNK        -0.0832 
     15 C15        28.7465   -4.1647   -5.7805 C.3       12 UNK         0.0240 
     16 S16        27.0527   -3.7692   -5.2440 S.3       12 UNK        -0.2522 
     17 C17        26.2250   -3.6554   -6.8674 C.3       12 UNK        -0.0967 
     18 CA         25.8907   -2.2225   -7.3624 C.3       5 UNK         0.0660 
     19 N          24.6957   -1.6595   -6.7276 N.am      5 UNK        -0.4015 
     20 C          23.8518   -0.8262   -7.3563 C.2       4 UNK         0.4946 
     21 O          23.9947   -0.4623   -8.5238 O.2       4 UNK        -0.5353 
     22 CA         22.6466   -0.3008   -6.5588 C.3       4 UNK         0.0277 
     23 CB         21.5084   -1.3343   -6.5548 C.3       4 UNK        -0.1981 
     24 N          22.9827    0.0636   -5.1832 N.am      4 UNK        -0.4209 
     25 C          23.7820    1.0830   -4.8373 C.2       3 UNK         0.4942 
     26 O          24.2914    1.8606   -5.6427 O.2       3 UNK        -0.5208 
     27 CA         24.0889    1.2437   -3.3374 C.3       3 UNK         0.0250 
     28 CB         23.0775    2.1970   -2.6810 C.3       3 UNK        -0.1990 
     29 N          24.1191   -0.0241   -2.5969 N.am      3 UNK        -0.4232 
     30 C          24.9509   -1.0394   -2.8646 C.2       2 UNK         0.4993 
     31 O          25.7584   -1.0359   -3.7969 O.2       2 UNK        -0.5286 
     32 CA         24.8189   -2.2899   -1.9917 C.3       2 UNK         0.0209 
     33 CB         23.8956   -3.3133   -2.6738 C.3       2 UNK        -0.1931 
     34 N          26.1443   -2.8820   -1.8289 N.am      2 UNK        -0.4546 
     35 C          26.8275   -2.9178   -0.6798 C.2       1 UNK         0.5154 
     36 O          26.3716   -2.5417    0.4035 O.2       1 UNK        -0.5181 
     37 C          27.0690   -1.2288   -7.3039 C.2       5 UNK         0.5014 
     38 O          27.8114   -1.1204   -8.2797 O.2       5 UNK        -0.5248 
     39 N          27.1889   -0.4667   -6.2055 N.am      6 UNK        -0.4434 
     40 CA         28.1808    0.6003   -6.0290 C.3       6 UNK         0.0363 
     41 CB         28.1950    1.0443   -4.5588 C.3       6 UNK        -0.1936 
     42 C          27.9855    1.8064   -6.9699 C.2       6 UNK         0.5081 
     43 O          28.9046    2.6120   -7.1062 O.2       6 UNK        -0.5248 
     44 N          26.8181    1.9131   -7.6173 N.am      7 UNK        -0.4718 
     45 CA         26.5648    2.8588   -8.7053 C.3       7 UNK         0.0273 
     46 CB         25.0507    3.0972   -8.8206 C.3       7 UNK        -0.1935 
     47 C          27.1371    2.3839  -10.0559 C.2       7 UNK         0.5018 
     48 O          27.3446    3.2200  -10.9364 O.2       7 UNK        -0.5186 
     49 N          27.3568    1.0699  -10.2116 N.am      8 UNK        -0.4240 
     50 CA         27.8465    0.4409  -11.4408 C.3       8 UNK         0.0235 
     51 CB         27.0057   -0.8137  -11.7327 C.3       8 UNK        -0.2000 
     52 C          29.3363    0.0764  -11.3495 C.2       8 UNK         0.4941 
     53 O          30.0486    0.2123  -12.3458 O.2       8 UNK        -0.5273 
     54 N          29.7785   -0.3938  -10.1750 N.am      9 UNK        -0.4262 
     55 CA         31.1647   -0.7599   -9.8736 C.3       9 UNK         0.0264 
     56 CB         31.1955   -1.4582   -8.5033 C.3       9 UNK        -0.1955 
     57 C          32.1088    0.4547   -9.8601 C.2       9 UNK         0.5031 
     58 O          31.6602    1.5841   -9.6528 O.2       9 UNK        -0.5390 
     59 N          33.4164    0.1947  -10.0044 N.am      10 UNK        -0.4204 
     60 CA         34.4825    1.2040   -9.9225 C.3       10 UNK         0.0237 
     61 CB         35.8310    0.5559  -10.2764 C.3       10 UNK        -0.1985 
     62 C          34.5636    1.9084   -8.5536 C.2       10 UNK         0.4970 
     63 O          34.8982    3.0922   -8.5011 O.2       10 UNK        -0.4914 
     64 N          34.2273    1.1752   -7.4858 N.am      11 UNK        -0.4285 
     65 CA         34.0216    1.6915   -6.1247 C.3       11 UNK         0.1007 
     66 C          32.6269    2.3461   -5.8881 C.2       11 UNK         0.5703 
     67 N          31.7376    2.3957   -6.8709 N.am      11 UNK        -0.7361 
     68 O          32.3481    2.8172   -4.7882 O.2       11 UNK        -0.4986 
     69 C69        34.3549    0.6130   -5.0579 C.3       12 UNK        -0.0947 
     70 S70        33.4618   -0.9659   -5.2779 S.3       12 UNK        -0.2240 
     71 C71        32.0907   -0.7760   -4.0982 C.3       12 UNK         0.0194 
     72 H72        28.2231   -0.3017   -0.8877 H         1 UNK         0.0906 
     73 H73        29.9038    0.2169   -0.9339 H         1 UNK         0.0906 
     74 H74        29.3965   -1.1466   -1.9101 H         1 UNK         0.0906 
     75 H75        29.3497   -3.4193    1.0363 H         1 UNK         0.3140 
     76 H76        28.6244   -3.2482   -1.7514 H         1 UNK         0.1085 
     77 H77        27.4995   -5.4516   -1.2932 H         1 UNK         0.0836 
     78 H78        27.8400   -5.2823    0.3980 H         1 UNK         0.0836 
     79 H79        31.3308   -4.2039   -0.5089 H         1 UNK         0.0731 
     80 H80        32.0196   -5.4843   -1.4625 H         1 UNK         0.0731 
     81 H81        32.2758   -2.5534   -2.0412 H         1 UNK         0.1312 
     82 H82        30.2267   -1.8865   -5.7419 H         1 UNK         0.1406 
     83 H83        29.4884   -5.4684   -3.5220 H         1 UNK         0.1631 
     84 H84        28.8291   -5.2371   -5.9634 H         1 UNK         0.0717 
     85 H85        28.9641   -3.6714   -6.7293 H         1 UNK         0.0717 
     86 H86        26.8398   -4.1591   -7.6154 H         1 UNK         0.0934 
     87 H87        25.3102   -4.2483   -6.8187 H         1 UNK         0.0934 
     88 H88        25.6639   -2.3386   -8.4250 H         1 UNK         0.0739 
     89 H89        24.5596   -1.8685   -5.7486 H         1 UNK         0.3093 
     90 H90        22.2868    0.5991   -7.0629 H         1 UNK         0.0818 
     91 H91        20.6148   -0.9384   -6.0718 H         1 UNK         0.0819 
     92 H92        21.2283   -1.6086   -7.5730 H         1 UNK         0.0819 
     93 H93        21.7923   -2.2514   -6.0371 H         1 UNK         0.0819 
     94 H94        22.5978   -0.5109   -4.4481 H         1 UNK         0.3041 
     95 H95        25.0801    1.6934   -3.2561 H         1 UNK         0.0784 
     96 H96        22.0657    1.7899   -2.6995 H         1 UNK         0.0793 
     97 H97        23.3397    2.4015   -1.6428 H         1 UNK         0.0793 
     98 H98        23.0522    3.1561   -3.2007 H         1 UNK         0.0793 
     99 H99        23.4732   -0.1095   -1.8247 H         1 UNK         0.3024 
    100 H100       24.3916   -2.0112   -1.0255 H         1 UNK         0.1171 
    101 H101       22.8915   -2.9094   -2.8092 H         1 UNK         0.0786 
    102 H102       23.8006   -4.2184   -2.0736 H         1 UNK         0.0786 
    103 H103       24.2676   -3.6049   -3.6571 H         1 UNK         0.0786 
    104 H104       26.6020   -3.1413   -2.6943 H         1 UNK         0.2977 
    105 H105       26.5785   -0.6499   -5.4098 H         1 UNK         0.3127 
    106 H106       29.1612    0.1816   -6.2606 H         1 UNK         0.0770 
    107 H107       27.2434    1.4879   -4.2670 H         1 UNK         0.0814 
    108 H108       28.9733    1.7881   -4.3823 H         1 UNK         0.0814 
    109 H109       28.3924    0.2034   -3.8939 H         1 UNK         0.0814 
    110 H110       26.0760    1.2658   -7.3890 H         1 UNK         0.2983 
    111 H111       27.0410    3.8119   -8.4642 H         1 UNK         0.0947 
    112 H112       24.8271    3.8201   -9.6064 H         1 UNK         0.0806 
    113 H113       24.6401    3.4924   -7.8913 H         1 UNK         0.0806 
    114 H114       24.5139    2.1785   -9.0597 H         1 UNK         0.0806 
    115 H115       27.2129    0.4548   -9.4191 H         1 UNK         0.3000 
    116 H116       27.7267    1.1251  -12.2837 H         1 UNK         0.0850 
    117 H117       27.3330   -1.2968  -12.6543 H         1 UNK         0.0810 
    118 H118       25.9517   -0.5632  -11.8544 H         1 UNK         0.0810 
    119 H119       27.0830   -1.5507  -10.9323 H         1 UNK         0.0810 
    120 H120       29.1055   -0.5240   -9.4231 H         1 UNK         0.3040 
    121 H121       31.5030   -1.4596  -10.6406 H         1 UNK         0.0766 
    122 H122       32.1913   -1.8368   -8.2702 H         1 UNK         0.0812 
    123 H123       30.5129   -2.3078   -8.4723 H         1 UNK         0.0812 
    124 H124       30.9134   -0.7717   -7.7043 H         1 UNK         0.0812 
    125 H125       33.7078   -0.7591  -10.1669 H         1 UNK         0.3205 
    126 H126       34.2658    1.9710  -10.6692 H         1 UNK         0.0754 
    127 H127       36.0922   -0.2423   -9.5803 H         1 UNK         0.0769 
    128 H128       35.8180    0.1351  -11.2821 H         1 UNK         0.0769 
    129 H129       36.6367    1.2909  -10.2461 H         1 UNK         0.0769 
    130 H130       33.9690    0.2097   -7.6218 H         1 UNK         0.2981 
    131 H131       34.7357    2.5029   -5.9732 H         1 UNK         0.0541 
    132 H132       31.9487    2.0552   -7.8022 H         1 UNK         0.3459 
    133 H133       30.8106    2.7706   -6.7043 H         1 UNK         0.3459 
    134 H134       34.1951    0.9942   -4.0478 H         1 UNK         0.0612 
    135 H135       35.4203    0.3845   -5.1100 H         1 UNK         0.0612 
    136 H136       32.4769   -0.4281   -3.1389 H         1 UNK         0.0624 
    137 H137       31.4033   -0.0078   -4.4554 H         1 UNK         0.0624 
@<TRIPOS>BOND
     1    1    2 1    
     2    1   72 1    
     3    1   73 1    
     4    1   74 1    
     5    2    3 2    
     6    2    4 am   BACKBONE|DICT|INTERRES
     7    4    5 1    
     8    4   75 1    
     9    5    6 1    
    10    5   35 1    
    11    5   76 1    
    12    6    7 1    
    13    6   77 1    
    14    6   78 1    
    15    7    8 1    
    16    8    9 1    
    17    8   79 1    
    18    8   80 1    
    19    9   10 ar   
    20    9   14 ar   
    21   10   11 ar   
    22   10   81 1    
    23   11   12 ar   
    24   11   71 1    
    25   12   13 ar   
    26   12   82 1    
    27   13   14 ar   
    28   13   15 1    
    29   14   83 1    
    30   15   16 1    
    31   15   84 1    
    32   15   85 1    
    33   16   17 1    
    34   17   18 1    
    35   17   86 1    
    36   17   87 1    
    37   18   19 1    
    38   18   37 1    
    39   18   88 1    
    40   19   20 am   BACKBONE|DICT|INTERRES
    41   19   89 1    
    42   20   21 2    
    43   20   22 1    
    44   22   23 1    
    45   22   24 1    
    46   22   90 1    
    47   23   91 1    
    48   23   92 1    
    49   23   93 1    
    50   24   25 am   BACKBONE|DICT|INTERRES
    51   24   94 1    
    52   25   26 2    
    53   25   27 1    
    54   27   28 1    
    55   27   29 1    
    56   27   95 1    
    57   28   96 1    
    58   28   97 1    
    59   28   98 1    
    60   29   30 am   BACKBONE|DICT|INTERRES
    61   29   99 1    
    62   30   31 2    
    63   30   32 1    
    64   32   33 1    
    65   32   34 1    
    66   32  100 1    
    67   33  101 1    
    68   33  102 1    
    69   33  103 1    
    70   34   35 am   BACKBONE|DICT|INTERRES
    71   34  104 1    
    72   35   36 2    
    73   37   38 2    
    74   37   39 am   BACKBONE|DICT|INTERRES
    75   39   40 1    
    76   39  105 1    
    77   40   41 1    
    78   40   42 1    
    79   40  106 1    
    80   41  107 1    
    81   41  108 1    
    82   41  109 1    
    83   42   43 2    
    84   42   44 am   BACKBONE|DICT|INTERRES
    85   44   45 1    
    86   44  110 1    
    87   45   46 1    
    88   45   47 1    
    89   45  111 1    
    90   46  112 1    
    91   46  113 1    
    92   46  114 1    
    93   47   48 2    
    94   47   49 am   BACKBONE|DICT|INTERRES
    95   49   50 1    
    96   49  115 1    
    97   50   51 1    
    98   50   52 1    
    99   50  116 1    
   100   51  117 1    
   101   51  118 1    
   102   51  119 1    
   103   52   53 2    
   104   52   54 am   BACKBONE|DICT|INTERRES
   105   54   55 1    
   106   54  120 1    
   107   55   56 1    
   108   55   57 1    
   109   55  121 1    
   110   56  122 1    
   111   56  123 1    
   112   56  124 1    
   113   57   58 2    
   114   57   59 am   BACKBONE|DICT|INTERRES
   115   59   60 1    
   116   59  125 1    
   117   60   61 1    
   118   60   62 1    
   119   60  126 1    
   120   61  127 1    
   121   61  128 1    
   122   61  129 1    
   123   62   63 2    
   124   62   64 am   BACKBONE|DICT|INTERRES
   125   64   65 1    
   126   64  130 1    
   127   65   66 1    
   128   65   69 1    
   129   65  131 1    
   130   66   67 am   BACKBONE|DICT|INTERRES
   131   66   68 2    
   132   67  132 1    
   133   67  133 1    
   134   69   70 1    
   135   69  134 1    
   136   69  135 1    
   137   70   71 1    
   138   71  136 1    
   139   71  137 1    
@<TRIPOS>SUBSTRUCTURE
     1 UNK         1 GROUP             0       ****    0 ROOT    
