@<TRIPOS>MOLECULE
3R137
137   139    1
SMALL
USER_CHARGES


@<TRIPOS>ATOM
      1 CA         27.6279   -6.3879    0.1065 C.3       0 UNK        -0.2020 
      2 C          26.6855   -5.2500    0.4690 C.2       0 UNK         0.4855 
      3 O          25.5479   -5.4990    0.8682 O.2       0 UNK        -0.5197 
      4 N          27.1503   -4.0015    0.3319 N.am      1 UNK        -0.4892 
      5 CA         26.3761   -2.7814    0.5999 C.3       1 UNK         0.0835 
      6 C6         27.3026   -1.5576    0.8239 C.3       12 UNK        -0.0855 
      7 S7         28.2572   -1.0745   -0.6572 S.3       12 UNK        -0.2931 
      8 C8         29.8856   -1.7993   -0.3142 C.3       12 UNK         0.0378 
      9 C9         30.7152   -1.8938   -1.5853 C.ar      12 UNK        -0.0802 
     10 C10        31.6905   -0.9328   -1.8664 C.ar      12 UNK        -0.0944 
     11 C11        32.4974   -1.0497   -3.0029 C.ar      12 UNK        -0.0787 
     12 C12        32.3174   -2.1391   -3.8612 C.ar      12 UNK        -0.0862 
     13 C13        31.3190   -3.0858   -3.6128 C.ar      12 UNK        -0.0733 
     14 C14        30.5227   -2.9593   -2.4707 C.ar      12 UNK        -0.0832 
     15 C15        31.1308   -4.2664   -4.5565 C.3       12 UNK         0.0240 
     16 S16        30.5503   -3.7592   -6.2066 S.3       12 UNK        -0.2522 
     17 C17        28.8180   -3.2857   -5.8789 C.3       12 UNK        -0.0967 
     18 CA         28.3050   -2.2560   -6.9183 C.3       5 UNK         0.0660 
     19 N          26.8488   -2.1945   -6.9705 N.am      5 UNK        -0.4015 
     20 C          26.1542   -1.8712   -8.0708 C.2       4 UNK         0.4946 
     21 O          26.6645   -1.6878   -9.1754 O.2       4 UNK        -0.5353 
     22 CA         24.6362   -1.6698   -7.9045 C.3       4 UNK         0.0277 
     23 CB         23.8972   -3.0104   -8.0413 C.3       4 UNK        -0.1981 
     24 N          24.2799   -1.0401   -6.6320 N.am      4 UNK        -0.4209 
     25 C          24.7430    0.1440   -6.2037 C.2       3 UNK         0.4942 
     26 O          25.4254    0.8989   -6.8959 O.2       3 UNK        -0.5208 
     27 CA         24.4617    0.5169   -4.7372 C.3       3 UNK         0.0250 
     28 CB         23.2609    1.4706   -4.6460 C.3       3 UNK        -0.1990 
     29 N          24.2343   -0.6494   -3.8734 N.am      3 UNK        -0.4232 
     30 C          25.1377   -1.6109   -3.6338 C.2       2 UNK         0.4993 
     31 O          26.2890   -1.6014   -4.0830 O.2       2 UNK        -0.5286 
     32 CA         24.6449   -2.8313   -2.8469 C.3       2 UNK         0.0209 
     33 CB         24.6728   -4.0872   -3.7352 C.3       2 UNK        -0.1931 
     34 N          25.4982   -3.0500   -1.6858 N.am      2 UNK        -0.4546 
     35 C          25.3040   -2.5006   -0.4791 C.2       1 UNK         0.5154 
     36 O          24.3316   -1.7968   -0.1994 O.2       1 UNK        -0.5181 
     37 C          28.8699   -0.8456   -6.6790 C.2       5 UNK         0.5014 
     38 O          29.6049   -0.3346   -7.5233 O.2       5 UNK        -0.5248 
     39 N          28.5268   -0.2469   -5.5310 N.am      6 UNK        -0.4434 
     40 CA         29.1950    0.9473   -5.0107 C.3       6 UNK         0.0363 
     41 CB         28.7854    1.1634   -3.5492 C.3       6 UNK        -0.1936 
     42 C          28.9889    2.2353   -5.8223 C.2       6 UNK         0.5081 
     43 O          29.9081    3.0530   -5.8703 O.2       6 UNK        -0.5248 
     44 N          27.8045    2.4156   -6.4194 N.am      7 UNK        -0.4718 
     45 CA         27.4366    3.6326   -7.1436 C.3       7 UNK         0.0273 
     46 CB         26.1010    4.1794   -6.6088 C.3       7 UNK        -0.1935 
     47 C          27.3682    3.3834   -8.6529 C.2       7 UNK         0.5018 
     48 O          28.0131    4.1154   -9.4031 O.2       7 UNK        -0.5186 
     49 N          26.5936    2.3737   -9.0792 N.am      8 UNK        -0.4240 
     50 CA         26.3222    2.1099  -10.4976 C.3       8 UNK         0.0235 
     51 CB         25.1048    1.1872  -10.6560 C.3       8 UNK        -0.2000 
     52 C          27.5482    1.5642  -11.2456 C.2       8 UNK         0.4941 
     53 O          27.9275    2.1315  -12.2708 O.2       8 UNK        -0.5273 
     54 N          28.1694    0.5042  -10.7082 N.am      9 UNK        -0.4262 
     55 CA         29.4271   -0.0498  -11.2243 C.3       9 UNK         0.0264 
     56 CB         29.5194   -1.5415  -10.8646 C.3       9 UNK        -0.1955 
     57 C          30.6718    0.7069  -10.7222 C.2       9 UNK         0.5031 
     58 O          31.7738    0.4003  -11.1796 O.2       9 UNK        -0.5390 
     59 N          30.4908    1.6510   -9.7847 N.am      10 UNK        -0.4204 
     60 CA         31.5156    2.4820   -9.1385 C.3       10 UNK         0.0237 
     61 CB         32.0643    3.5253  -10.1345 C.3       10 UNK        -0.1985 
     62 C          32.6249    1.6491   -8.4632 C.2       10 UNK         0.4970 
     63 O          33.8076    1.9632   -8.6089 O.2       10 UNK        -0.4914 
     64 N          32.2088    0.5812   -7.7718 N.am      11 UNK        -0.4285 
     65 CA         33.0398   -0.4607   -7.1505 C.3       11 UNK         0.1007 
     66 C          33.7279   -1.4295   -8.1598 C.2       11 UNK         0.5703 
     67 N          33.4671   -1.3569   -9.4605 N.am      11 UNK        -0.7361 
     68 O          34.4952   -2.2978   -7.7510 O.2       11 UNK        -0.4986 
     69 C69        34.0329    0.0767   -6.0775 C.3       12 UNK        -0.0947 
     70 S70        33.2245    1.0122   -4.7324 S.3       12 UNK        -0.2240 
     71 C71        33.5856   -0.0187   -3.2733 C.3       12 UNK         0.0194 
     72 H72        27.7792   -7.0379    0.9680 H         1 UNK         0.0906 
     73 H73        27.2021   -6.9849   -0.6995 H         1 UNK         0.0906 
     74 H74        28.6027   -6.0250   -0.2187 H         1 UNK         0.0906 
     75 H75        28.0918   -3.8528    0.0020 H         1 UNK         0.3140 
     76 H76        25.8280   -2.9435    1.5311 H         1 UNK         0.1085 
     77 H77        26.7099   -0.6955    1.1362 H         1 UNK         0.0836 
     78 H78        27.9859   -1.7520    1.6522 H         1 UNK         0.0836 
     79 H79        30.3964   -1.1943    0.4367 H         1 UNK         0.0731 
     80 H80        29.7732   -2.7933    0.1194 H         1 UNK         0.0731 
     81 H81        31.8329   -0.1026   -1.1881 H         1 UNK         0.1312 
     82 H82        32.9522   -2.2537   -4.7276 H         1 UNK         0.1406 
     83 H83        29.7608   -3.6974   -2.2618 H         1 UNK         0.1631 
     84 H84        30.4347   -4.9968   -4.1410 H         1 UNK         0.0717 
     85 H85        32.0849   -4.7837   -4.6670 H         1 UNK         0.0717 
     86 H86        28.2210   -4.1975   -5.9332 H         1 UNK         0.0934 
     87 H87        28.7081   -2.9181   -4.8569 H         1 UNK         0.0934 
     88 H88        28.6571   -2.5900   -7.8960 H         1 UNK         0.0739 
     89 H89        26.3696   -2.2424   -6.0796 H         1 UNK         0.3093 
     90 H90        24.2919   -1.0094   -8.7008 H         1 UNK         0.0818 
     91 H91        22.8162   -2.8747   -8.0018 H         1 UNK         0.0819 
     92 H92        24.1268   -3.4841   -8.9970 H         1 UNK         0.0819 
     93 H93        24.1780   -3.7122   -7.2550 H         1 UNK         0.0819 
     94 H94        23.7007   -1.5778   -6.0049 H         1 UNK         0.3041 
     95 H95        25.3440    1.0401   -4.3629 H         1 UNK         0.0784 
     96 H96        23.4196    2.3576   -5.2612 H         1 UNK         0.0793 
     97 H97        22.3399    0.9971   -4.9886 H         1 UNK         0.0793 
     98 H98        23.1033    1.8136   -3.6232 H         1 UNK         0.0793 
     99 H99        23.3146   -0.7301   -3.4625 H         1 UNK         0.3024 
    100 H100       23.6157   -2.6677   -2.5186 H         1 UNK         0.1171 
    101 H101       24.0265   -3.9665   -4.6053 H         1 UNK         0.0786 
    102 H102       24.3191   -4.9630   -3.1906 H         1 UNK         0.0786 
    103 H103       25.6770   -4.3062   -4.1012 H         1 UNK         0.0786 
    104 H104       26.3533   -3.5629   -1.8401 H         1 UNK         0.2977 
    105 H105       27.8696   -0.7123   -4.9103 H         1 UNK         0.3127 
    106 H106       30.2671    0.7405   -5.0212 H         1 UNK         0.0770 
    107 H107       27.7042    1.2427   -3.4338 H         1 UNK         0.0814 
    108 H108       29.2311    2.0721   -3.1424 H         1 UNK         0.0814 
    109 H109       29.1336    0.3360   -2.9347 H         1 UNK         0.0814 
    110 H110       27.1032    1.6815   -6.3853 H         1 UNK         0.2983 
    111 H111       28.1848    4.4122   -6.9828 H         1 UNK         0.0947 
    112 H112       25.8369    5.1121   -7.1089 H         1 UNK         0.0806 
    113 H113       26.1613    4.3913   -5.5413 H         1 UNK         0.0806 
    114 H114       25.2749    3.4861   -6.7639 H         1 UNK         0.0806 
    115 H115       26.1056    1.8067   -8.3888 H         1 UNK         0.3000 
    116 H116       26.0605    3.0659  -10.9575 H         1 UNK         0.0850 
    117 H117       24.7967    1.1340  -11.7009 H         1 UNK         0.0810 
    118 H118       24.2501    1.5468  -10.0826 H         1 UNK         0.0810 
    119 H119       25.3231    0.1709  -10.3382 H         1 UNK         0.0810 
    120 H120       27.7594    0.0356   -9.9068 H         1 UNK         0.3040 
    121 H121       29.4242    0.0258  -12.3138 H         1 UNK         0.0766 
    122 H122       30.3911   -2.0023  -11.3310 H         1 UNK         0.0812 
    123 H123       28.6410   -2.0899  -11.2051 H         1 UNK         0.0812 
    124 H124       29.6137   -1.6907   -9.7906 H         1 UNK         0.0812 
    125 H125       29.5454    1.7901   -9.4582 H         1 UNK         0.3205 
    126 H126       31.0114    3.0252   -8.3385 H         1 UNK         0.0754 
    127 H127       32.7458    4.2185   -9.6400 H         1 UNK         0.0769 
    128 H128       31.2585    4.1181  -10.5679 H         1 UNK         0.0769 
    129 H129       32.6122    3.0547  -10.9516 H         1 UNK         0.0769 
    130 H130       31.2091    0.3827   -7.7433 H         1 UNK         0.2981 
    131 H131       32.3187   -1.0917   -6.6320 H         1 UNK         0.0541 
    132 H132       33.9194   -2.0070  -10.0826 H         1 UNK         0.3459 
    133 H133       32.8533   -0.6460   -9.8427 H         1 UNK         0.3459 
    134 H134       34.7810    0.7241   -6.5361 H         1 UNK         0.0612 
    135 H135       34.5979   -0.7471   -5.6404 H         1 UNK         0.0612 
    136 H136       34.5504   -0.5155   -3.3815 H         1 UNK         0.0624 
    137 H137       33.6917    0.6468   -2.4154 H         1 UNK         0.0624 
@<TRIPOS>BOND
     1    1    2 1    
     2    1   72 1    
     3    1   73 1    
     4    1   74 1    
     5    2    3 2    
     6    2    4 am   BACKBONE|DICT|INTERRES
     7    4    5 1    
     8    4   75 1    
     9    5    6 1    
    10    5   35 1    
    11    5   76 1    
    12    6    7 1    
    13    6   77 1    
    14    6   78 1    
    15    7    8 1    
    16    8    9 1    
    17    8   79 1    
    18    8   80 1    
    19    9   10 ar   
    20    9   14 ar   
    21   10   11 ar   
    22   10   81 1    
    23   11   12 ar   
    24   11   71 1    
    25   12   13 ar   
    26   12   82 1    
    27   13   14 ar   
    28   13   15 1    
    29   14   83 1    
    30   15   16 1    
    31   15   84 1    
    32   15   85 1    
    33   16   17 1    
    34   17   18 1    
    35   17   86 1    
    36   17   87 1    
    37   18   19 1    
    38   18   37 1    
    39   18   88 1    
    40   19   20 am   BACKBONE|DICT|INTERRES
    41   19   89 1    
    42   20   21 2    
    43   20   22 1    
    44   22   23 1    
    45   22   24 1    
    46   22   90 1    
    47   23   91 1    
    48   23   92 1    
    49   23   93 1    
    50   24   25 am   BACKBONE|DICT|INTERRES
    51   24   94 1    
    52   25   26 2    
    53   25   27 1    
    54   27   28 1    
    55   27   29 1    
    56   27   95 1    
    57   28   96 1    
    58   28   97 1    
    59   28   98 1    
    60   29   30 am   BACKBONE|DICT|INTERRES
    61   29   99 1    
    62   30   31 2    
    63   30   32 1    
    64   32   33 1    
    65   32   34 1    
    66   32  100 1    
    67   33  101 1    
    68   33  102 1    
    69   33  103 1    
    70   34   35 am   BACKBONE|DICT|INTERRES
    71   34  104 1    
    72   35   36 2    
    73   37   38 2    
    74   37   39 am   BACKBONE|DICT|INTERRES
    75   39   40 1    
    76   39  105 1    
    77   40   41 1    
    78   40   42 1    
    79   40  106 1    
    80   41  107 1    
    81   41  108 1    
    82   41  109 1    
    83   42   43 2    
    84   42   44 am   BACKBONE|DICT|INTERRES
    85   44   45 1    
    86   44  110 1    
    87   45   46 1    
    88   45   47 1    
    89   45  111 1    
    90   46  112 1    
    91   46  113 1    
    92   46  114 1    
    93   47   48 2    
    94   47   49 am   BACKBONE|DICT|INTERRES
    95   49   50 1    
    96   49  115 1    
    97   50   51 1    
    98   50   52 1    
    99   50  116 1    
   100   51  117 1    
   101   51  118 1    
   102   51  119 1    
   103   52   53 2    
   104   52   54 am   BACKBONE|DICT|INTERRES
   105   54   55 1    
   106   54  120 1    
   107   55   56 1    
   108   55   57 1    
   109   55  121 1    
   110   56  122 1    
   111   56  123 1    
   112   56  124 1    
   113   57   58 2    
   114   57   59 am   BACKBONE|DICT|INTERRES
   115   59   60 1    
   116   59  125 1    
   117   60   61 1    
   118   60   62 1    
   119   60  126 1    
   120   61  127 1    
   121   61  128 1    
   122   61  129 1    
   123   62   63 2    
   124   62   64 am   BACKBONE|DICT|INTERRES
   125   64   65 1    
   126   64  130 1    
   127   65   66 1    
   128   65   69 1    
   129   65  131 1    
   130   66   67 am   BACKBONE|DICT|INTERRES
   131   66   68 2    
   132   67  132 1    
   133   67  133 1    
   134   69   70 1    
   135   69  134 1    
   136   69  135 1    
   137   70   71 1    
   138   71  136 1    
   139   71  137 1    
@<TRIPOS>SUBSTRUCTURE
     1 UNK         1 GROUP             0       ****    0 ROOT    
