@<TRIPOS>MOLECULE
3R137
137   139    1
SMALL
USER_CHARGES


@<TRIPOS>ATOM
      1 CA         29.6661   -0.0608    1.0754 C.3       0 UNK        -0.2020 
      2 C          29.6612   -0.6017   -0.3460 C.2       0 UNK         0.4855 
      3 O          30.3740   -0.0789   -1.2017 O.2       0 UNK        -0.5197 
      4 N          28.8477   -1.6323   -0.6099 N.am      1 UNK        -0.4892 
      5 CA         28.7151   -2.3507   -1.8875 C.3       1 UNK         0.0835 
      6 C6         28.0636   -3.7442   -1.6644 C.3       12 UNK        -0.0855 
      7 S7         29.1425   -4.8494   -0.6905 S.3       12 UNK        -0.2931 
      8 C8         29.7138   -6.0329   -1.9578 C.3       12 UNK         0.0378 
      9 C9         30.2907   -5.3351   -3.1828 C.ar      12 UNK        -0.0802 
     10 C10        31.4665   -4.5887   -3.0788 C.ar      12 UNK        -0.0944 
     11 C11        31.9727   -3.9067   -4.1876 C.ar      12 UNK        -0.0787 
     12 C12        31.3048   -3.9894   -5.4141 C.ar      12 UNK        -0.0862 
     13 C13        30.1331   -4.7426   -5.5363 C.ar      12 UNK        -0.0733 
     14 C14        29.6371   -5.4194   -4.4164 C.ar      12 UNK        -0.0832 
     15 C15        29.4403   -4.8689   -6.8895 C.3       12 UNK         0.0240 
     16 S16        27.6420   -4.5794   -6.8097 S.3       12 UNK        -0.2522 
     17 C17        27.5241   -2.7729   -7.0267 C.3       12 UNK        -0.0967 
     18 CA         26.0384   -2.3285   -7.0585 C.3       5 UNK         0.0660 
     19 N          25.3960   -2.5072   -5.7564 N.am      5 UNK        -0.4015 
     20 C          24.0870   -2.6927   -5.5441 C.2       4 UNK         0.4946 
     21 O          23.2551   -2.7900   -6.4481 O.2       4 UNK        -0.5353 
     22 CA         23.6295   -2.7273   -4.0803 C.3       4 UNK         0.0277 
     23 CB         24.0811   -4.0287   -3.3950 C.3       4 UNK        -0.1981 
     24 N          24.1714   -1.5768   -3.3559 N.am      4 UNK        -0.4209 
     25 C          23.5130   -0.4315   -3.1265 C.2       3 UNK         0.4942 
     26 O          22.3367   -0.2421   -3.4380 O.2       3 UNK        -0.5208 
     27 CA         24.2912    0.6997   -2.4250 C.3       3 UNK         0.0250 
     28 CB         24.0870    0.6277   -0.9029 C.3       3 UNK        -0.1990 
     29 N          25.7260    0.6782   -2.7188 N.am      3 UNK        -0.4232 
     30 C          26.2641    0.9793   -3.9092 C.2       2 UNK         0.4993 
     31 O          25.6157    1.4432   -4.8458 O.2       2 UNK        -0.5286 
     32 CA         27.7702    0.7030   -4.0984 C.3       2 UNK         0.0209 
     33 CB         28.5703    2.0143   -4.0242 C.3       2 UNK        -0.1931 
     34 N          28.3527   -0.2615   -3.1541 N.am      2 UNK        -0.4546 
     35 C          27.9627   -1.5283   -2.9599 C.2       1 UNK         0.5154 
     36 O          27.0118   -2.0284   -3.5623 O.2       1 UNK        -0.5181 
     37 C          25.8484   -0.8665   -7.5034 C.2       5 UNK         0.5014 
     38 O          26.8035   -0.0878   -7.5013 O.2       5 UNK        -0.5248 
     39 N          24.5967   -0.5316   -7.8524 N.am      6 UNK        -0.4434 
     40 CA         24.0566    0.8093   -8.1160 C.3       6 UNK         0.0363 
     41 CB         22.5581    0.6794   -8.4358 C.3       6 UNK        -0.1936 
     42 C          24.7670    1.6446   -9.1983 C.2       6 UNK         0.5081 
     43 O          24.5359    2.8524   -9.2652 O.2       6 UNK        -0.5248 
     44 N          25.6320    1.0163  -10.0064 N.am      7 UNK        -0.4718 
     45 CA         26.5766    1.6898  -10.9029 C.3       7 UNK         0.0273 
     46 CB         27.2626    0.6395  -11.7916 C.3       7 UNK        -0.1935 
     47 C          27.6340    2.5259  -10.1532 C.2       7 UNK         0.5018 
     48 O          28.2019    3.4415  -10.7499 O.2       7 UNK        -0.5186 
     49 N          27.8873    2.1921   -8.8766 N.am      8 UNK        -0.4240 
     50 CA         28.7675    2.8390   -7.8943 C.3       8 UNK         0.0235 
     51 CB         28.3395    4.2920   -7.6172 C.3       8 UNK        -0.2000 
     52 C          30.2680    2.7474   -8.2104 C.2       8 UNK         0.4941 
     53 O          31.0461    2.4266   -7.3135 O.2       8 UNK        -0.5273 
     54 N          30.6481    2.9685   -9.4757 N.am      9 UNK        -0.4262 
     55 CA         32.0152    2.8852  -10.0066 C.3       9 UNK         0.0264 
     56 CB         32.0061    3.3396  -11.4752 C.3       9 UNK        -0.1955 
     57 C          32.6679    1.4946   -9.8762 C.2       9 UNK         0.5031 
     58 O          33.8917    1.3905   -9.9663 O.2       9 UNK        -0.5390 
     59 N          31.8488    0.4597   -9.6449 N.am      10 UNK        -0.4204 
     60 CA         32.2683   -0.8969   -9.2949 C.3       10 UNK         0.0237 
     61 CB         31.0550   -1.8349   -9.4186 C.3       10 UNK        -0.1985 
     62 C          32.8876   -1.0119   -7.8867 C.2       10 UNK         0.4970 
     63 O          33.5258   -2.0283   -7.6121 O.2       10 UNK        -0.4914 
     64 N          32.6848   -0.0074   -7.0233 N.am      11 UNK        -0.4285 
     65 CA         33.1818    0.0385   -5.6449 C.3       11 UNK         0.1007 
     66 C          33.7025    1.4548   -5.2685 C.2       11 UNK         0.5703 
     67 N          33.8246    1.7638   -3.9846 N.am      11 UNK        -0.7361 
     68 O          34.0500    2.2636   -6.1272 O.2       11 UNK        -0.4986 
     69 C69        32.1434   -0.5660   -4.6533 C.3       12 UNK        -0.0947 
     70 S70        32.9413   -1.4691   -3.2856 S.3       12 UNK        -0.2240 
     71 C71        33.2486   -3.0910   -4.0533 C.3       12 UNK         0.0194 
     72 H72        29.3674    0.9871    1.0788 H         1 UNK         0.0906 
     73 H73        28.9851   -0.6105    1.7248 H         1 UNK         0.0906 
     74 H74        30.6680   -0.1307    1.4981 H         1 UNK         0.0906 
     75 H75        28.2895   -2.0099    0.1428 H         1 UNK         0.3140 
     76 H76        29.7179   -2.5048   -2.2917 H         1 UNK         0.1085 
     77 H77        27.1088   -3.6417   -1.1455 H         1 UNK         0.0836 
     78 H78        27.8271   -4.2324   -2.6111 H         1 UNK         0.0836 
     79 H79        28.8806   -6.6801   -2.2365 H         1 UNK         0.0731 
     80 H80        30.4737   -6.6826   -1.5213 H         1 UNK         0.0731 
     81 H81        31.9746   -4.5188   -2.1264 H         1 UNK         0.1312 
     82 H82        31.7049   -3.4729   -6.2756 H         1 UNK         0.1406 
     83 H83        28.7330   -6.0063   -4.5063 H         1 UNK         0.1631 
     84 H84        29.6088   -5.8794   -7.2637 H         1 UNK         0.0717 
     85 H85        29.8824   -4.1943   -7.6238 H         1 UNK         0.0717 
     86 H86        28.0729   -2.2712   -6.2271 H         1 UNK         0.0934 
     87 H87        28.0228   -2.5110   -7.9616 H         1 UNK         0.0934 
     88 H88        25.5238   -2.9512   -7.7941 H         1 UNK         0.0739 
     89 H89        26.0112   -2.4091   -4.9499 H         1 UNK         0.3093 
     90 H90        22.5377   -2.6998   -4.0663 H         1 UNK         0.0818 
     91 H91        25.1673   -4.1248   -3.3690 H         1 UNK         0.0819 
     92 H92        23.7183   -4.0794   -2.3684 H         1 UNK         0.0819 
     93 H93        23.6895   -4.9009   -3.9201 H         1 UNK         0.0819 
     94 H94        25.1581   -1.6233   -3.1242 H         1 UNK         0.3041 
     95 H95        23.8851    1.6492   -2.7808 H         1 UNK         0.0784 
     96 H96        23.0264    0.6685   -0.6501 H         1 UNK         0.0793 
     97 H97        24.4863   -0.2967   -0.4834 H         1 UNK         0.0793 
     98 H98        24.5707    1.4637   -0.3973 H         1 UNK         0.0793 
     99 H99        26.3385    0.3320   -1.9953 H         1 UNK         0.3024 
    100 H100       27.8856    0.2864   -5.1009 H         1 UNK         0.1171 
    101 H101       29.6019    1.8685   -4.3456 H         1 UNK         0.0786 
    102 H102       28.1373    2.7793   -4.6701 H         1 UNK         0.0786 
    103 H103       28.5871    2.4181   -3.0113 H         1 UNK         0.0786 
    104 H104       29.1391    0.0580   -2.5914 H         1 UNK         0.2977 
    105 H105       23.9034   -1.2671   -7.7635 H         1 UNK         0.3127 
    106 H106       24.1552    1.3710   -7.1850 H         1 UNK         0.0770 
    107 H107       22.3896    0.0911   -9.3386 H         1 UNK         0.0814 
    108 H108       22.1030    1.6582   -8.5945 H         1 UNK         0.0814 
    109 H109       22.0169    0.2040   -7.6173 H         1 UNK         0.0814 
    110 H110       25.7523    0.0220   -9.8804 H         1 UNK         0.2983 
    111 H111       26.0121    2.3730  -11.5413 H         1 UNK         0.0947 
    112 H112       27.9558    1.1116  -12.4895 H         1 UNK         0.0806 
    113 H113       26.5353    0.0862  -12.3860 H         1 UNK         0.0806 
    114 H114       27.8331   -0.0797  -11.2022 H         1 UNK         0.0806 
    115 H115       27.3895    1.3838   -8.5054 H         1 UNK         0.3000 
    116 H116       28.6161    2.2739   -6.9740 H         1 UNK         0.0850 
    117 H117       28.9381    4.7269   -6.8156 H         1 UNK         0.0810 
    118 H118       27.2958    4.3423   -7.3065 H         1 UNK         0.0810 
    119 H119       28.4597    4.9287   -8.4941 H         1 UNK         0.0810 
    120 H120       29.9124    3.2277  -10.1310 H         1 UNK         0.3040 
    121 H121       32.6307    3.5810   -9.4327 H         1 UNK         0.0766 
    122 H122       31.6352    4.3601  -11.5727 H         1 UNK         0.0812 
    123 H123       31.3793    2.6944  -12.0923 H         1 UNK         0.0812 
    124 H124       33.0116    3.3203  -11.8981 H         1 UNK         0.0812 
    125 H125       30.8593    0.6522   -9.6029 H         1 UNK         0.3205 
    126 H126       33.0270   -1.2142  -10.0133 H         1 UNK         0.0754 
    127 H127       31.3402   -2.8686   -9.2181 H         1 UNK         0.0769 
    128 H128       30.6311   -1.8084  -10.4227 H         1 UNK         0.0769 
    129 H129       30.2669   -1.5704   -8.7123 H         1 UNK         0.0769 
    130 H130       32.1863    0.8287   -7.3167 H         1 UNK         0.2981 
    131 H131       34.0852   -0.5729   -5.6174 H         1 UNK         0.0541 
    132 H132       34.1792    2.6707   -3.7253 H         1 UNK         0.3459 
    133 H133       33.5637    1.0968   -3.2737 H         1 UNK         0.3459 
    134 H134       31.4678   -1.2521   -5.1633 H         1 UNK         0.0612 
    135 H135       31.4946    0.2067   -4.2376 H         1 UNK         0.0612 
    136 H136       33.7266   -2.9557   -5.0242 H         1 UNK         0.0624 
    137 H137       33.9639   -3.6379   -3.4374 H         1 UNK         0.0624 
@<TRIPOS>BOND
     1    1    2 1    
     2    1   72 1    
     3    1   73 1    
     4    1   74 1    
     5    2    3 2    
     6    2    4 am   BACKBONE|DICT|INTERRES
     7    4    5 1    
     8    4   75 1    
     9    5    6 1    
    10    5   35 1    
    11    5   76 1    
    12    6    7 1    
    13    6   77 1    
    14    6   78 1    
    15    7    8 1    
    16    8    9 1    
    17    8   79 1    
    18    8   80 1    
    19    9   10 ar   
    20    9   14 ar   
    21   10   11 ar   
    22   10   81 1    
    23   11   12 ar   
    24   11   71 1    
    25   12   13 ar   
    26   12   82 1    
    27   13   14 ar   
    28   13   15 1    
    29   14   83 1    
    30   15   16 1    
    31   15   84 1    
    32   15   85 1    
    33   16   17 1    
    34   17   18 1    
    35   17   86 1    
    36   17   87 1    
    37   18   19 1    
    38   18   37 1    
    39   18   88 1    
    40   19   20 am   BACKBONE|DICT|INTERRES
    41   19   89 1    
    42   20   21 2    
    43   20   22 1    
    44   22   23 1    
    45   22   24 1    
    46   22   90 1    
    47   23   91 1    
    48   23   92 1    
    49   23   93 1    
    50   24   25 am   BACKBONE|DICT|INTERRES
    51   24   94 1    
    52   25   26 2    
    53   25   27 1    
    54   27   28 1    
    55   27   29 1    
    56   27   95 1    
    57   28   96 1    
    58   28   97 1    
    59   28   98 1    
    60   29   30 am   BACKBONE|DICT|INTERRES
    61   29   99 1    
    62   30   31 2    
    63   30   32 1    
    64   32   33 1    
    65   32   34 1    
    66   32  100 1    
    67   33  101 1    
    68   33  102 1    
    69   33  103 1    
    70   34   35 am   BACKBONE|DICT|INTERRES
    71   34  104 1    
    72   35   36 2    
    73   37   38 2    
    74   37   39 am   BACKBONE|DICT|INTERRES
    75   39   40 1    
    76   39  105 1    
    77   40   41 1    
    78   40   42 1    
    79   40  106 1    
    80   41  107 1    
    81   41  108 1    
    82   41  109 1    
    83   42   43 2    
    84   42   44 am   BACKBONE|DICT|INTERRES
    85   44   45 1    
    86   44  110 1    
    87   45   46 1    
    88   45   47 1    
    89   45  111 1    
    90   46  112 1    
    91   46  113 1    
    92   46  114 1    
    93   47   48 2    
    94   47   49 am   BACKBONE|DICT|INTERRES
    95   49   50 1    
    96   49  115 1    
    97   50   51 1    
    98   50   52 1    
    99   50  116 1    
   100   51  117 1    
   101   51  118 1    
   102   51  119 1    
   103   52   53 2    
   104   52   54 am   BACKBONE|DICT|INTERRES
   105   54   55 1    
   106   54  120 1    
   107   55   56 1    
   108   55   57 1    
   109   55  121 1    
   110   56  122 1    
   111   56  123 1    
   112   56  124 1    
   113   57   58 2    
   114   57   59 am   BACKBONE|DICT|INTERRES
   115   59   60 1    
   116   59  125 1    
   117   60   61 1    
   118   60   62 1    
   119   60  126 1    
   120   61  127 1    
   121   61  128 1    
   122   61  129 1    
   123   62   63 2    
   124   62   64 am   BACKBONE|DICT|INTERRES
   125   64   65 1    
   126   64  130 1    
   127   65   66 1    
   128   65   69 1    
   129   65  131 1    
   130   66   67 am   BACKBONE|DICT|INTERRES
   131   66   68 2    
   132   67  132 1    
   133   67  133 1    
   134   69   70 1    
   135   69  134 1    
   136   69  135 1    
   137   70   71 1    
   138   71  136 1    
   139   71  137 1    
@<TRIPOS>SUBSTRUCTURE
     1 UNK         1 GROUP             0       ****    0 ROOT    
