@<TRIPOS>MOLECULE
3R137
137   139    1
SMALL
USER_CHARGES


@<TRIPOS>ATOM
      1 CA         23.4689   -5.4982   -3.3558 C.3       0 UNK        -0.2020 
      2 C          24.0791   -4.5943   -2.2959 C.2       0 UNK         0.4855 
      3 O          23.3987   -3.7072   -1.7790 O.2       0 UNK        -0.5197 
      4 N          25.3617   -4.8088   -1.9780 N.am      1 UNK        -0.4892 
      5 CA         26.1735   -4.0315   -1.0343 C.3       1 UNK         0.0835 
      6 C6         27.5900   -4.6467   -0.8355 C.3       12 UNK        -0.0855 
      7 S7         28.3664   -5.3347   -2.3487 S.3       12 UNK        -0.2931 
      8 C8         30.1438   -5.1155   -2.0191 C.3       12 UNK         0.0378 
      9 C9         30.7155   -3.9008   -2.7382 C.ar      12 UNK        -0.0802 
     10 C10        31.5274   -4.0612   -3.8658 C.ar      12 UNK        -0.0944 
     11 C11        32.0969   -2.9492   -4.4951 C.ar      12 UNK        -0.0787 
     12 C12        31.8237   -1.6663   -4.0112 C.ar      12 UNK        -0.0862 
     13 C13        31.0118   -1.4914   -2.8869 C.ar      12 UNK        -0.0733 
     14 C14        30.4702   -2.6152   -2.2514 C.ar      12 UNK        -0.0832 
     15 C15        30.7756   -0.0954   -2.3234 C.3       12 UNK         0.0240 
     16 S16        29.0290    0.1900   -1.9020 S.3       12 UNK        -0.2522 
     17 C17        28.4913    1.3704   -3.1740 C.3       12 UNK        -0.0967 
     18 CA         28.3316    0.8068   -4.6126 C.3       5 UNK         0.0660 
     19 N          27.5718   -0.4487   -4.7104 N.am      5 UNK        -0.4015 
     20 C          27.3174   -1.0944   -5.8641 C.2       4 UNK         0.4946 
     21 O          27.7623   -0.7516   -6.9589 O.2       4 UNK        -0.5353 
     22 CA         26.3366   -2.2740   -5.8194 C.3       4 UNK         0.0277 
     23 CB         27.0470   -3.5750   -5.4156 C.3       4 UNK        -0.1981 
     24 N          25.2102   -1.9915   -4.9289 N.am      4 UNK        -0.4209 
     25 C          24.2302   -1.1218   -5.2230 C.2       3 UNK         0.4942 
     26 O          24.1366   -0.5418   -6.3038 O.2       3 UNK        -0.5208 
     27 CA         23.2066   -0.8026   -4.1208 C.3       3 UNK         0.0250 
     28 CB         21.9892   -1.7347   -4.2146 C.3       3 UNK        -0.1990 
     29 N          23.7901   -0.8673   -2.7795 N.am      3 UNK        -0.4232 
     30 C          24.6813    0.0239   -2.3187 C.2       2 UNK         0.4993 
     31 O          25.0411    1.0161   -2.9546 O.2       2 UNK        -0.5286 
     32 CA         25.3200   -0.2636   -0.9473 C.3       2 UNK         0.0209 
     33 CB         24.4890    0.3758    0.1759 C.3       2 UNK        -0.1931 
     34 N          25.5076   -1.6926   -0.6653 N.am      2 UNK        -0.4546 
     35 C          26.2137   -2.5404   -1.4286 C.2       1 UNK         0.5154 
     36 O          26.8093   -2.1938   -2.4476 O.2       1 UNK        -0.5181 
     37 C          27.7123    1.9030   -5.5008 C.2       5 UNK         0.5014 
     38 O          28.4211    2.5018   -6.3088 O.2       5 UNK        -0.5248 
     39 N          26.3978    2.1233   -5.3427 N.am      6 UNK        -0.4434 
     40 CA         25.6183    3.1036   -6.1001 C.3       6 UNK         0.0363 
     41 CB         24.1911    3.1698   -5.5335 C.3       6 UNK        -0.1936 
     42 C          25.5879    2.8274   -7.6129 C.2       6 UNK         0.5081 
     43 O          25.6887    3.7717   -8.3968 O.2       6 UNK        -0.5248 
     44 N          25.4485    1.5512   -7.9964 N.am      7 UNK        -0.4718 
     45 CA         25.4233    1.1136   -9.3916 C.3       7 UNK         0.0273 
     46 CB         24.8681   -0.3175   -9.4778 C.3       7 UNK        -0.1935 
     47 C          26.7963    1.2029  -10.0754 C.2       7 UNK         0.5018 
     48 O          26.8791    1.7299  -11.1860 O.2       7 UNK        -0.5186 
     49 N          27.8370    0.6607   -9.4281 N.am      8 UNK        -0.4240 
     50 CA         29.1691    0.5268  -10.0189 C.3       8 UNK         0.0235 
     51 CB         29.9058   -0.6564   -9.3675 C.3       8 UNK        -0.2000 
     52 C          30.0254    1.7942   -9.9070 C.2       8 UNK         0.4941 
     53 O          30.8603    2.0175  -10.7837 O.2       8 UNK        -0.5273 
     54 N          29.8749    2.5578   -8.8131 N.am      9 UNK        -0.4262 
     55 CA         30.7556    3.6380   -8.3353 C.3       9 UNK         0.0264 
     56 CB         30.9097    4.7813   -9.3586 C.3       9 UNK        -0.1955 
     57 C          32.1181    3.1103   -7.8443 C.2       9 UNK         0.5031 
     58 O          32.5004    3.3855   -6.7062 O.2       9 UNK        -0.5390 
     59 N          32.7965    2.3244   -8.6848 N.am      10 UNK        -0.4204 
     60 CA         33.9551    1.5018   -8.3621 C.3       10 UNK         0.0237 
     61 CB         35.2546    2.2878   -8.6065 C.3       10 UNK        -0.1985 
     62 C          33.8700    0.2575   -9.2517 C.2       10 UNK         0.4970 
     63 O          33.6277    0.3963  -10.4522 O.2       10 UNK        -0.4914 
     64 N          34.0508   -0.9280   -8.6598 N.am      11 UNK        -0.4285 
     65 CA         33.9120   -2.2215   -9.3545 C.3       11 UNK         0.1007 
     66 C          35.0812   -2.5752  -10.3213 C.2       11 UNK         0.5703 
     67 N          36.2011   -1.8616  -10.3042 N.am      11 UNK        -0.7361 
     68 O          34.9658   -3.5132  -11.1067 O.2       11 UNK        -0.4986 
     69 C69        33.6369   -3.3906   -8.3720 C.3       12 UNK        -0.0947 
     70 S70        32.2140   -3.0974   -7.2641 S.3       12 UNK        -0.2240 
     71 C71        33.0592   -3.1373   -5.6567 C.3       12 UNK         0.0194 
     72 H72        22.4760   -5.8241   -3.0468 H         1 UNK         0.0906 
     73 H73        24.0762   -6.3867   -3.5279 H         1 UNK         0.0906 
     74 H74        23.3751   -4.9624   -4.2997 H         1 UNK         0.0906 
     75 H75        25.8814   -5.5258   -2.4663 H         1 UNK         0.3140 
     76 H76        25.6661   -4.0929   -0.0691 H         1 UNK         0.1085 
     77 H77        27.5159   -5.4713   -0.1247 H         1 UNK         0.0836 
     78 H78        28.2609   -3.9265   -0.3642 H         1 UNK         0.0836 
     79 H79        30.3250   -5.0344   -0.9463 H         1 UNK         0.0731 
     80 H80        30.6641   -6.0190   -2.3405 H         1 UNK         0.0731 
     81 H81        31.7391   -5.0537   -4.2397 H         1 UNK         0.1312 
     82 H82        32.2679   -0.8070   -4.4948 H         1 UNK         0.1406 
     83 H83        29.8537   -2.4879   -1.3729 H         1 UNK         0.1631 
     84 H84        31.3735    0.0169   -1.4182 H         1 UNK         0.0717 
     85 H85        31.1214    0.6719   -3.0176 H         1 UNK         0.0717 
     86 H86        27.5492    1.7882   -2.8153 H         1 UNK         0.0934 
     87 H87        29.1938    2.2065   -3.1767 H         1 UNK         0.0934 
     88 H88        29.3290    0.5925   -5.0022 H         1 UNK         0.0739 
     89 H89        27.2329   -0.8504   -3.8405 H         1 UNK         0.3093 
     90 H90        25.9378   -2.4167   -6.8261 H         1 UNK         0.0818 
     91 H91        27.7681   -3.8697   -6.1789 H         1 UNK         0.0819 
     92 H92        27.6029   -3.4658   -4.4855 H         1 UNK         0.0819 
     93 H93        26.3437   -4.3988   -5.2955 H         1 UNK         0.0819 
     94 H94        25.2846   -2.3487   -3.9854 H         1 UNK         0.3041 
     95 H95        22.8566    0.2189   -4.2848 H         1 UNK         0.0784 
     96 H96        21.5077   -1.6461   -5.1895 H         1 UNK         0.0793 
     97 H97        22.2649   -2.7802   -4.0838 H         1 UNK         0.0793 
     98 H98        21.2415   -1.4884   -3.4605 H         1 UNK         0.0793 
     99 H99        23.5712   -1.6855   -2.2188 H         1 UNK         0.3024 
    100 H100       26.3053    0.2043   -0.9482 H         1 UNK         0.1171 
    101 H101       24.3518    1.4437   -0.0007 H         1 UNK         0.0786 
    102 H102       23.4974   -0.0725    0.2510 H         1 UNK         0.0786 
    103 H103       24.9809    0.2706    1.1431 H         1 UNK         0.0786 
    104 H104       25.0043   -2.0615    0.1290 H         1 UNK         0.2977 
    105 H105       25.9014    1.6074   -4.6199 H         1 UNK         0.3127 
    106 H106       26.0888    4.0780   -5.9531 H         1 UNK         0.0770 
    107 H107       23.6726    2.2160   -5.6366 H         1 UNK         0.0814 
    108 H108       23.5983    3.9221   -6.0555 H         1 UNK         0.0814 
    109 H109       24.1951    3.4353   -4.4761 H         1 UNK         0.0814 
    110 H110       25.3100    0.8357   -7.2896 H         1 UNK         0.2983 
    111 H111       24.7414    1.7691   -9.9381 H         1 UNK         0.0947 
    112 H112       25.4773   -1.0224   -8.9109 H         1 UNK         0.0806 
    113 H113       24.8399   -0.6656  -10.5112 H         1 UNK         0.0806 
    114 H114       23.8505   -0.3704   -9.0904 H         1 UNK         0.0806 
    115 H115       27.6965    0.2349   -8.5120 H         1 UNK         0.3000 
    116 H116       29.0578    0.2995  -11.0816 H         1 UNK         0.0850 
    117 H117       30.8710   -0.8256   -9.8463 H         1 UNK         0.0810 
    118 H118       29.3340   -1.5803   -9.4556 H         1 UNK         0.0810 
    119 H119       30.0966   -0.4826   -8.3075 H         1 UNK         0.0810 
    120 H120       29.1707    2.2830   -8.1327 H         1 UNK         0.3040 
    121 H121       30.2518    4.0586   -7.4639 H         1 UNK         0.0766 
    122 H122       31.4653    4.4756  -10.2451 H         1 UNK         0.0812 
    123 H123       31.4488    5.6207   -8.9178 H         1 UNK         0.0812 
    124 H124       29.9383    5.1540   -9.6833 H         1 UNK         0.0812 
    125 H125       32.3803    2.1373   -9.5972 H         1 UNK         0.3205 
    126 H126       33.9046    1.1985   -7.3139 H         1 UNK         0.0754 
    127 H127       36.1292    1.6785   -8.3757 H         1 UNK         0.0769 
    128 H128       35.3027    3.1769   -7.9775 H         1 UNK         0.0769 
    129 H129       35.3419    2.6086   -9.6455 H         1 UNK         0.0769 
    130 H130       34.2594   -0.9712   -7.6740 H         1 UNK         0.2981 
    131 H131       33.0301   -2.1419   -9.9932 H         1 UNK         0.0541 
    132 H132       36.9473   -2.0992  -10.9385 H         1 UNK         0.3459 
    133 H133       36.3051   -1.0880   -9.6683 H         1 UNK         0.3459 
    134 H134       34.5294   -3.5992   -7.7793 H         1 UNK         0.0612 
    135 H135       33.4265   -4.3072   -8.9262 H         1 UNK         0.0612 
    136 H136       33.8258   -2.3612   -5.6333 H         1 UNK         0.0624 
    137 H137       33.5830   -4.0888   -5.5513 H         1 UNK         0.0624 
@<TRIPOS>BOND
     1    1    2 1    
     2    1   72 1    
     3    1   73 1    
     4    1   74 1    
     5    2    3 2    
     6    2    4 am   BACKBONE|DICT|INTERRES
     7    4    5 1    
     8    4   75 1    
     9    5    6 1    
    10    5   35 1    
    11    5   76 1    
    12    6    7 1    
    13    6   77 1    
    14    6   78 1    
    15    7    8 1    
    16    8    9 1    
    17    8   79 1    
    18    8   80 1    
    19    9   10 ar   
    20    9   14 ar   
    21   10   11 ar   
    22   10   81 1    
    23   11   12 ar   
    24   11   71 1    
    25   12   13 ar   
    26   12   82 1    
    27   13   14 ar   
    28   13   15 1    
    29   14   83 1    
    30   15   16 1    
    31   15   84 1    
    32   15   85 1    
    33   16   17 1    
    34   17   18 1    
    35   17   86 1    
    36   17   87 1    
    37   18   19 1    
    38   18   37 1    
    39   18   88 1    
    40   19   20 am   BACKBONE|DICT|INTERRES
    41   19   89 1    
    42   20   21 2    
    43   20   22 1    
    44   22   23 1    
    45   22   24 1    
    46   22   90 1    
    47   23   91 1    
    48   23   92 1    
    49   23   93 1    
    50   24   25 am   BACKBONE|DICT|INTERRES
    51   24   94 1    
    52   25   26 2    
    53   25   27 1    
    54   27   28 1    
    55   27   29 1    
    56   27   95 1    
    57   28   96 1    
    58   28   97 1    
    59   28   98 1    
    60   29   30 am   BACKBONE|DICT|INTERRES
    61   29   99 1    
    62   30   31 2    
    63   30   32 1    
    64   32   33 1    
    65   32   34 1    
    66   32  100 1    
    67   33  101 1    
    68   33  102 1    
    69   33  103 1    
    70   34   35 am   BACKBONE|DICT|INTERRES
    71   34  104 1    
    72   35   36 2    
    73   37   38 2    
    74   37   39 am   BACKBONE|DICT|INTERRES
    75   39   40 1    
    76   39  105 1    
    77   40   41 1    
    78   40   42 1    
    79   40  106 1    
    80   41  107 1    
    81   41  108 1    
    82   41  109 1    
    83   42   43 2    
    84   42   44 am   BACKBONE|DICT|INTERRES
    85   44   45 1    
    86   44  110 1    
    87   45   46 1    
    88   45   47 1    
    89   45  111 1    
    90   46  112 1    
    91   46  113 1    
    92   46  114 1    
    93   47   48 2    
    94   47   49 am   BACKBONE|DICT|INTERRES
    95   49   50 1    
    96   49  115 1    
    97   50   51 1    
    98   50   52 1    
    99   50  116 1    
   100   51  117 1    
   101   51  118 1    
   102   51  119 1    
   103   52   53 2    
   104   52   54 am   BACKBONE|DICT|INTERRES
   105   54   55 1    
   106   54  120 1    
   107   55   56 1    
   108   55   57 1    
   109   55  121 1    
   110   56  122 1    
   111   56  123 1    
   112   56  124 1    
   113   57   58 2    
   114   57   59 am   BACKBONE|DICT|INTERRES
   115   59   60 1    
   116   59  125 1    
   117   60   61 1    
   118   60   62 1    
   119   60  126 1    
   120   61  127 1    
   121   61  128 1    
   122   61  129 1    
   123   62   63 2    
   124   62   64 am   BACKBONE|DICT|INTERRES
   125   64   65 1    
   126   64  130 1    
   127   65   66 1    
   128   65   69 1    
   129   65  131 1    
   130   66   67 am   BACKBONE|DICT|INTERRES
   131   66   68 2    
   132   67  132 1    
   133   67  133 1    
   134   69   70 1    
   135   69  134 1    
   136   69  135 1    
   137   70   71 1    
   138   71  136 1    
   139   71  137 1    
@<TRIPOS>SUBSTRUCTURE
     1 UNK         1 GROUP             0       ****    0 ROOT    
