@<TRIPOS>MOLECULE
3R137
137   139    1
SMALL
USER_CHARGES


@<TRIPOS>ATOM
      1 CA         29.8707   -8.2385   -7.2649 C.3       0 UNK        -0.2020 
      2 C          28.9029   -7.3735   -6.4719 C.2       0 UNK         0.4855 
      3 O          27.8220   -7.8376   -6.1059 O.2       0 UNK        -0.5197 
      4 N          29.2773   -6.1156   -6.2048 N.am      1 UNK        -0.4892 
      5 CA         28.4596   -5.1262   -5.4951 C.3       1 UNK         0.0835 
      6 C6         29.3476   -4.0722   -4.7813 C.3       12 UNK        -0.0855 
      7 S7         28.5055   -3.3429   -3.3358 S.3       12 UNK        -0.2931 
      8 C8         29.8783   -3.0842   -2.1656 C.3       12 UNK         0.0378 
      9 C9         30.3092   -1.6251   -2.1145 C.ar      12 UNK        -0.0802 
     10 C10        31.2103   -1.1133   -3.0527 C.ar      12 UNK        -0.0944 
     11 C11        31.6271    0.2206   -2.9855 C.ar      12 UNK        -0.0787 
     12 C12        31.1333    1.0465   -1.9708 C.ar      12 UNK        -0.0862 
     13 C13        30.2347    0.5442   -1.0241 C.ar      12 UNK        -0.0733 
     14 C14        29.8248   -0.7899   -1.1037 C.ar      12 UNK        -0.0832 
     15 C15        29.7260    1.4259    0.1068 C.3       12 UNK         0.0240 
     16 S16        27.9729    1.8642   -0.1063 S.3       12 UNK        -0.2522 
     17 C17        28.0528    3.0692   -1.4748 C.3       12 UNK        -0.0967 
     18 CA         27.5641    2.4949   -2.8289 C.3       5 UNK         0.0660 
     19 N          26.2413    1.8565   -2.7012 N.am      5 UNK        -0.4015 
     20 C          25.4225    1.4349   -3.6747 C.2       4 UNK         0.4946 
     21 O          25.5593    1.7148   -4.8660 O.2       4 UNK        -0.5353 
     22 CA         24.2150    0.5877   -3.2368 C.3       4 UNK         0.0277 
     23 CB         23.0723    1.4955   -2.7528 C.3       4 UNK        -0.1981 
     24 N          23.7256   -0.2474   -4.3384 N.am      4 UNK        -0.4209 
     25 C          24.3949   -1.2823   -4.8645 C.2       3 UNK         0.4942 
     26 O          25.4235   -1.7554   -4.3767 O.2       3 UNK        -0.5208 
     27 CA         23.8179   -1.8806   -6.1550 C.3       3 UNK         0.0250 
     28 CB         23.7239   -0.8275   -7.2793 C.3       3 UNK        -0.1990 
     29 N          24.6596   -2.9946   -6.5885 N.am      3 UNK        -0.4232 
     30 C          24.2908   -3.9747   -7.4184 C.2       2 UNK         0.4993 
     31 O          23.1632   -4.0521   -7.9091 O.2       2 UNK        -0.5286 
     32 CA         25.3165   -5.0698   -7.7696 C.3       2 UNK         0.0209 
     33 CB         25.8957   -4.8413   -9.1809 C.3       2 UNK        -0.1931 
     34 N          26.3879   -5.2974   -6.7862 N.am      2 UNK        -0.4546 
     35 C          27.4311   -4.5169   -6.4734 C.2       1 UNK         0.5154 
     36 O          27.6244   -3.4053   -6.9675 O.2       1 UNK        -0.5181 
     37 C          27.6987    3.5841   -3.9174 C.2       5 UNK         0.5014 
     38 O          28.7590    3.6895   -4.5329 O.2       5 UNK        -0.5248 
     39 N          26.6382    4.3741   -4.1359 N.am      6 UNK        -0.4434 
     40 CA         26.5800    5.4321   -5.1481 C.3       6 UNK         0.0363 
     41 CB         25.3521    6.3162   -4.8745 C.3       6 UNK        -0.1936 
     42 C          26.5542    4.9203   -6.6027 C.2       6 UNK         0.5081 
     43 O          26.9322    5.6739   -7.5006 O.2       6 UNK        -0.5248 
     44 N          26.0969    3.6801   -6.8196 N.am      7 UNK        -0.4718 
     45 CA         25.9366    3.0573   -8.1383 C.3       7 UNK         0.0273 
     46 CB         24.4308    2.9439   -8.4390 C.3       7 UNK        -0.1935 
     47 C          26.6220    1.6815   -8.2374 C.2       7 UNK         0.5018 
     48 O          26.5034    1.0340   -9.2790 O.2       7 UNK        -0.5186 
     49 N          27.2887    1.2430   -7.1610 N.am      8 UNK        -0.4240 
     50 CA         27.9270   -0.0649   -7.0112 C.3       8 UNK         0.0235 
     51 CB         28.4777   -0.1909   -5.5825 C.3       8 UNK        -0.2000 
     52 C          29.0171   -0.3365   -8.0628 C.2       8 UNK         0.4941 
     53 O          29.7978    0.5576   -8.3965 O.2       8 UNK        -0.5273 
     54 N          29.0448   -1.5775   -8.5618 N.am      9 UNK        -0.4262 
     55 CA         29.9021   -2.0155   -9.6656 C.3       9 UNK         0.0264 
     56 CB         29.3131   -3.2968  -10.2783 C.3       9 UNK        -0.1955 
     57 C          31.3643   -2.2454   -9.2553 C.2       9 UNK         0.5031 
     58 O          32.2588   -2.0774  -10.0852 O.2       9 UNK        -0.5390 
     59 N          31.5859   -2.6343   -7.9928 N.am      10 UNK        -0.4204 
     60 CA         32.9034   -2.9849   -7.4515 C.3       10 UNK         0.0237 
     61 CB         32.7213   -3.8247   -6.1766 C.3       10 UNK        -0.1985 
     62 C          33.8232   -1.7789   -7.1837 C.2       10 UNK         0.4970 
     63 O          35.0103   -1.9875   -6.9301 O.2       10 UNK        -0.4914 
     64 N          33.2801   -0.5551   -7.2254 N.am      11 UNK        -0.4285 
     65 CA         34.0209    0.6925   -6.9771 C.3       11 UNK         0.1007 
     66 C          34.9965    1.1068   -8.1179 C.2       11 UNK         0.5703 
     67 N          34.9336    0.5055   -9.3009 N.am      11 UNK        -0.7361 
     68 O          35.8310    1.9871   -7.9214 O.2       11 UNK        -0.4986 
     69 C69        33.0824    1.8728   -6.6013 C.3       12 UNK        -0.0947 
     70 S70        31.7426    1.4760   -5.4269 S.3       12 UNK        -0.2240 
     71 C71        32.6180    0.7633   -4.0042 C.3       12 UNK         0.0194 
     72 H72        30.7874   -7.7044   -7.5142 H         1 UNK         0.0906 
     73 H73        30.1402   -9.1235   -6.6891 H         1 UNK         0.0906 
     74 H74        29.4052   -8.5656   -8.1943 H         1 UNK         0.0906 
     75 H75        30.1612   -5.7829   -6.5603 H         1 UNK         0.3140 
     76 H76        27.8970   -5.6554   -4.7217 H         1 UNK         0.1085 
     77 H77        29.6825   -3.2841   -5.4548 H         1 UNK         0.0836 
     78 H78        30.2556   -4.5596   -4.4248 H         1 UNK         0.0836 
     79 H79        30.7323   -3.7166   -2.4101 H         1 UNK         0.0731 
     80 H80        29.5487   -3.4077   -1.1770 H         1 UNK         0.0731 
     81 H81        31.5888   -1.7533   -3.8351 H         1 UNK         0.1312 
     82 H82        31.4549    2.0777   -1.9169 H         1 UNK         0.1406 
     83 H83        29.1297   -1.1781   -0.3713 H         1 UNK         0.1631 
     84 H84        30.3243    2.3337    0.1992 H         1 UNK         0.0717 
     85 H85        29.8397    0.8927    1.0518 H         1 UNK         0.0717 
     86 H86        27.4459    3.9301   -1.1863 H         1 UNK         0.0934 
     87 H87        29.0749    3.4431   -1.5645 H         1 UNK         0.0934 
     88 H88        28.2483    1.6929   -3.1134 H         1 UNK         0.0739 
     89 H89        26.0104    1.5953   -1.7530 H         1 UNK         0.3093 
     90 H90        24.5243   -0.0677   -2.4196 H         1 UNK         0.0818 
     91 H91        23.3854    2.1056   -1.9046 H         1 UNK         0.0819 
     92 H92        22.7376    2.1761   -3.5371 H         1 UNK         0.0819 
     93 H93        22.2120    0.9107   -2.4265 H         1 UNK         0.0819 
     94 H94        22.9038    0.0875   -4.8186 H         1 UNK         0.3041 
     95 H95        22.8199   -2.2595   -5.9252 H         1 UNK         0.0784 
     96 H96        23.0740    0.0024   -7.0019 H         1 UNK         0.0793 
     97 H97        24.7029   -0.4120   -7.5145 H         1 UNK         0.0793 
     98 H98        23.3169   -1.2540   -8.1960 H         1 UNK         0.0793 
     99 H99        25.5970   -2.9952   -6.1999 H         1 UNK         0.3024 
    100 H100       24.7532   -6.0042   -7.7995 H         1 UNK         0.1171 
    101 H101       26.4092   -3.8830   -9.2587 H         1 UNK         0.0786 
    102 H102       26.6006   -5.6259   -9.4558 H         1 UNK         0.0786 
    103 H103       25.1027   -4.8404   -9.9300 H         1 UNK         0.0786 
    104 H104       26.3762   -6.2146   -6.3531 H         1 UNK         0.2977 
    105 H105       25.7971    4.2050   -3.6035 H         1 UNK         0.3127 
    106 H106       27.4744    6.0495   -5.0390 H         1 UNK         0.0770 
    107 H107       25.2952    7.1371   -5.5909 H         1 UNK         0.0814 
    108 H108       25.3945    6.7602   -3.8798 H         1 UNK         0.0814 
    109 H109       24.4225    5.7510   -4.9534 H         1 UNK         0.0814 
    110 H110       25.8177    3.1071   -6.0233 H         1 UNK         0.2983 
    111 H111       26.3956    3.6776   -8.9109 H         1 UNK         0.0947 
    112 H112       24.2541    2.4978   -9.4186 H         1 UNK         0.0806 
    113 H113       23.9534    3.9238   -8.4407 H         1 UNK         0.0806 
    114 H114       23.9219    2.3246   -7.6996 H         1 UNK         0.0806 
    115 H115       27.2938    1.8347   -6.3428 H         1 UNK         0.3000 
    116 H116       27.1426   -0.8135   -7.1363 H         1 UNK         0.0850 
    117 H117       29.0431    0.6917   -5.2895 H         1 UNK         0.0810 
    118 H118       29.1370   -1.0510   -5.4781 H         1 UNK         0.0810 
    119 H119       27.6721   -0.3190   -4.8603 H         1 UNK         0.0810 
    120 H120       28.4086   -2.2681   -8.1639 H         1 UNK         0.3040 
    121 H121       29.8965   -1.2379  -10.4327 H         1 UNK         0.0766 
    122 H122       28.3179   -3.1176  -10.6851 H         1 UNK         0.0812 
    123 H123       29.2360   -4.0998   -9.5438 H         1 UNK         0.0812 
    124 H124       29.9341   -3.6611  -11.0980 H         1 UNK         0.0812 
    125 H125       30.7906   -2.7203   -7.3787 H         1 UNK         0.3205 
    126 H126       33.4138   -3.6084   -8.1890 H         1 UNK         0.0754 
    127 H127       32.1502   -4.7310   -6.3747 H         1 UNK         0.0769 
    128 H128       32.2130   -3.2646   -5.3939 H         1 UNK         0.0769 
    129 H129       33.6856   -4.1386   -5.7740 H         1 UNK         0.0769 
    130 H130       32.3007   -0.4521   -7.4476 H         1 UNK         0.2981 
    131 H131       34.6623    0.5107   -6.1132 H         1 UNK         0.0541 
    132 H132       34.2502   -0.2163   -9.4728 H         1 UNK         0.3459 
    133 H133       35.5732    0.7803  -10.0294 H         1 UNK         0.3459 
    134 H134       32.6000    2.2652   -7.4986 H         1 UNK         0.0612 
    135 H135       33.6626    2.6981   -6.1847 H         1 UNK         0.0612 
    136 H136       33.2555    1.5241   -3.5515 H         1 UNK         0.0624 
    137 H137       33.2752   -0.0418   -4.3330 H         1 UNK         0.0624 
@<TRIPOS>BOND
     1    1    2 1    
     2    1   72 1    
     3    1   73 1    
     4    1   74 1    
     5    2    3 2    
     6    2    4 am   BACKBONE|DICT|INTERRES
     7    4    5 1    
     8    4   75 1    
     9    5    6 1    
    10    5   35 1    
    11    5   76 1    
    12    6    7 1    
    13    6   77 1    
    14    6   78 1    
    15    7    8 1    
    16    8    9 1    
    17    8   79 1    
    18    8   80 1    
    19    9   10 ar   
    20    9   14 ar   
    21   10   11 ar   
    22   10   81 1    
    23   11   12 ar   
    24   11   71 1    
    25   12   13 ar   
    26   12   82 1    
    27   13   14 ar   
    28   13   15 1    
    29   14   83 1    
    30   15   16 1    
    31   15   84 1    
    32   15   85 1    
    33   16   17 1    
    34   17   18 1    
    35   17   86 1    
    36   17   87 1    
    37   18   19 1    
    38   18   37 1    
    39   18   88 1    
    40   19   20 am   BACKBONE|DICT|INTERRES
    41   19   89 1    
    42   20   21 2    
    43   20   22 1    
    44   22   23 1    
    45   22   24 1    
    46   22   90 1    
    47   23   91 1    
    48   23   92 1    
    49   23   93 1    
    50   24   25 am   BACKBONE|DICT|INTERRES
    51   24   94 1    
    52   25   26 2    
    53   25   27 1    
    54   27   28 1    
    55   27   29 1    
    56   27   95 1    
    57   28   96 1    
    58   28   97 1    
    59   28   98 1    
    60   29   30 am   BACKBONE|DICT|INTERRES
    61   29   99 1    
    62   30   31 2    
    63   30   32 1    
    64   32   33 1    
    65   32   34 1    
    66   32  100 1    
    67   33  101 1    
    68   33  102 1    
    69   33  103 1    
    70   34   35 am   BACKBONE|DICT|INTERRES
    71   34  104 1    
    72   35   36 2    
    73   37   38 2    
    74   37   39 am   BACKBONE|DICT|INTERRES
    75   39   40 1    
    76   39  105 1    
    77   40   41 1    
    78   40   42 1    
    79   40  106 1    
    80   41  107 1    
    81   41  108 1    
    82   41  109 1    
    83   42   43 2    
    84   42   44 am   BACKBONE|DICT|INTERRES
    85   44   45 1    
    86   44  110 1    
    87   45   46 1    
    88   45   47 1    
    89   45  111 1    
    90   46  112 1    
    91   46  113 1    
    92   46  114 1    
    93   47   48 2    
    94   47   49 am   BACKBONE|DICT|INTERRES
    95   49   50 1    
    96   49  115 1    
    97   50   51 1    
    98   50   52 1    
    99   50  116 1    
   100   51  117 1    
   101   51  118 1    
   102   51  119 1    
   103   52   53 2    
   104   52   54 am   BACKBONE|DICT|INTERRES
   105   54   55 1    
   106   54  120 1    
   107   55   56 1    
   108   55   57 1    
   109   55  121 1    
   110   56  122 1    
   111   56  123 1    
   112   56  124 1    
   113   57   58 2    
   114   57   59 am   BACKBONE|DICT|INTERRES
   115   59   60 1    
   116   59  125 1    
   117   60   61 1    
   118   60   62 1    
   119   60  126 1    
   120   61  127 1    
   121   61  128 1    
   122   61  129 1    
   123   62   63 2    
   124   62   64 am   BACKBONE|DICT|INTERRES
   125   64   65 1    
   126   64  130 1    
   127   65   66 1    
   128   65   69 1    
   129   65  131 1    
   130   66   67 am   BACKBONE|DICT|INTERRES
   131   66   68 2    
   132   67  132 1    
   133   67  133 1    
   134   69   70 1    
   135   69  134 1    
   136   69  135 1    
   137   70   71 1    
   138   71  136 1    
   139   71  137 1    
@<TRIPOS>SUBSTRUCTURE
     1 UNK         1 GROUP             0       ****    0 ROOT    
