@<TRIPOS>MOLECULE
3R137
137   139    1
SMALL
USER_CHARGES


@<TRIPOS>ATOM
      1 CA         25.0779   -6.5245   -4.8510 C.3       0 UNK        -0.2020 
      2 C          25.1516   -5.6783   -3.5896 C.2       0 UNK         0.4855 
      3 O          24.1391   -5.1217   -3.1634 O.2       0 UNK        -0.5197 
      4 N          26.3490   -5.5796   -2.9989 N.am      1 UNK        -0.4892 
      5 CA         26.6965   -4.8117   -1.7964 C.3       1 UNK         0.0835 
      6 C6         28.1895   -5.0064   -1.3912 C.3       12 UNK        -0.0855 
      7 S7         29.3655   -5.2080   -2.7857 S.3       12 UNK        -0.2931 
      8 C8         30.8636   -4.3659   -2.1853 C.3       12 UNK         0.0378 
      9 C9         30.8849   -2.8930   -2.5673 C.ar      12 UNK        -0.0802 
     10 C10        31.4613   -2.4836   -3.7744 C.ar      12 UNK        -0.0944 
     11 C11        31.5137   -1.1270   -4.1139 C.ar      12 UNK        -0.0787 
     12 C12        30.9755   -0.1777   -3.2411 C.ar      12 UNK        -0.0862 
     13 C13        30.3807   -0.5769   -2.0411 C.ar      12 UNK        -0.0733 
     14 C14        30.3494   -1.9339   -1.7055 C.ar      12 UNK        -0.0832 
     15 C15        29.7744    0.4470   -1.0948 C.3       12 UNK         0.0240 
     16 S16        27.9801    0.1991   -0.9305 S.3       12 UNK        -0.2522 
     17 C17        27.2782    1.4209   -2.0845 C.3       12 UNK        -0.0967 
     18 CA         27.6811    1.2892   -3.5785 C.3       5 UNK         0.0660 
     19 N          27.5209   -0.0594   -4.1430 N.am      5 UNK        -0.4015 
     20 C          27.8844   -0.4047   -5.3914 C.2       4 UNK         0.4946 
     21 O          28.4888    0.3415   -6.1615 O.2       4 UNK        -0.5353 
     22 CA         27.4401   -1.7803   -5.9118 C.3       4 UNK         0.0277 
     23 CB         28.4571   -2.8722   -5.5538 C.3       4 UNK        -0.1981 
     24 N          26.1097   -2.1367   -5.4184 N.am      4 UNK        -0.4209 
     25 C          24.9740   -1.5846   -5.8724 C.2       3 UNK         0.4942 
     26 O          24.9343   -0.7821   -6.8038 O.2       3 UNK        -0.5208 
     27 CA         23.6673   -1.9428   -5.1432 C.3       3 UNK         0.0250 
     28 CB         22.9980   -3.1657   -5.7873 C.3       3 UNK        -0.1990 
     29 N          23.8677   -2.1742   -3.7109 N.am      3 UNK        -0.4232 
     30 C          24.2028   -1.2046   -2.8459 C.2       2 UNK         0.4993 
     31 O          24.2983   -0.0182   -3.1615 O.2       2 UNK        -0.5286 
     32 CA         24.5458   -1.6270   -1.4057 C.3       2 UNK         0.0209 
     33 CB         23.2922   -1.5765   -0.5187 C.3       2 UNK        -0.1931 
     34 N          25.1625   -2.9552   -1.3066 N.am      2 UNK        -0.4546 
     35 C          26.2934   -3.3274   -1.9249 C.2       1 UNK         0.5154 
     36 O          26.9569   -2.5675   -2.6285 O.2       1 UNK        -0.5181 
     37 C          26.9100    2.3419   -4.4004 C.2       5 UNK         0.5014 
     38 O          27.4683    3.3944   -4.7127 O.2       5 UNK        -0.5248 
     39 N          25.6467    2.0334   -4.7326 N.am      6 UNK        -0.4434 
     40 CA         24.7701    2.8721   -5.5516 C.3       6 UNK         0.0363 
     41 CB         23.3415    2.3059   -5.5256 C.3       6 UNK        -0.1936 
     42 C          25.2678    3.0303   -6.9982 C.2       6 UNK         0.5081 
     43 O          25.2165    4.1389   -7.5320 O.2       6 UNK        -0.5248 
     44 N          25.7406    1.9316   -7.6047 N.am      7 UNK        -0.4718 
     45 CA         26.3110    1.9182   -8.9536 C.3       7 UNK         0.0273 
     46 CB         26.4608    0.4681   -9.4418 C.3       7 UNK        -0.1935 
     47 C          27.6590    2.6494   -9.0437 C.2       7 UNK         0.5018 
     48 O          27.8997    3.3391  -10.0356 O.2       7 UNK        -0.5186 
     49 N          28.5220    2.4566   -8.0337 N.am      8 UNK        -0.4240 
     50 CA         29.8913    2.9679   -7.8676 C.3       8 UNK         0.0235 
     51 CB         29.9279    4.5074   -7.8371 C.3       8 UNK        -0.2000 
     52 C          30.8998    2.3990   -8.8816 C.2       8 UNK         0.4941 
     53 O          31.9697    1.9411   -8.4792 O.2       8 UNK        -0.5273 
     54 N          30.5252    2.3799  -10.1683 N.am      9 UNK        -0.4262 
     55 CA         31.2842    1.8359  -11.3006 C.3       9 UNK         0.0264 
     56 CB         30.5013    2.0944  -12.5975 C.3       9 UNK        -0.1955 
     57 C          31.6344    0.3416  -11.1739 C.2       9 UNK         0.5031 
     58 O          32.5873   -0.1074  -11.8114 O.2       9 UNK        -0.5390 
     59 N          30.9028   -0.3882  -10.3195 N.am      10 UNK        -0.4204 
     60 CA         31.1828   -1.7646   -9.9019 C.3       10 UNK         0.0237 
     61 CB         30.0732   -2.2212   -8.9401 C.3       10 UNK        -0.1985 
     62 C          32.5703   -1.9522   -9.2533 C.2       10 UNK         0.4970 
     63 O          33.1297   -3.0448   -9.3499 O.2       10 UNK        -0.4914 
     64 N          33.1028   -0.8917   -8.6309 N.am      11 UNK        -0.4285 
     65 CA         34.4713   -0.8249   -8.0985 C.3       11 UNK         0.1007 
     66 C          35.5283   -0.3746   -9.1522 C.2       11 UNK         0.5703 
     67 N          35.1738   -0.1013  -10.4031 N.am      11 UNK        -0.7361 
     68 O          36.7124   -0.2921   -8.8338 O.2       11 UNK        -0.4986 
     69 C69        34.5190    0.0454   -6.8124 C.3       12 UNK        -0.0947 
     70 S70        33.9642   -0.8620   -5.3333 S.3       12 UNK        -0.2240 
     71 C71        32.1568   -0.6857   -5.4192 C.3       12 UNK         0.0194 
     72 H72        25.1883   -5.8977   -5.7350 H         1 UNK         0.0906 
     73 H73        25.8608   -7.2826   -4.8700 H         1 UNK         0.0906 
     74 H74        24.1165   -7.0344   -4.9100 H         1 UNK         0.0906 
     75 H75        27.1467   -6.0265   -3.4314 H         1 UNK         0.3140 
     76 H76        26.0968   -5.2294   -0.9849 H         1 UNK         0.1085 
     77 H77        28.2719   -5.9125   -0.7890 H         1 UNK         0.0836 
     78 H78        28.5235   -4.2015   -0.7344 H         1 UNK         0.0836 
     79 H79        31.7345   -4.8641   -2.6137 H         1 UNK         0.0731 
     80 H80        30.9533   -4.4855   -1.1045 H         1 UNK         0.0731 
     81 H81        31.8794   -3.2195   -4.4476 H         1 UNK         0.1312 
     82 H82        31.0169    0.8710   -3.5002 H         1 UNK         0.1406 
     83 H83        29.8945   -2.2402   -0.7740 H         1 UNK         0.1631 
     84 H84        29.9859    1.4674   -1.4177 H         1 UNK         0.0717 
     85 H85        30.2349    0.3344   -0.1124 H         1 UNK         0.0717 
     86 H86        26.1944    1.3616   -1.9740 H         1 UNK         0.0934 
     87 H87        27.5517    2.4115   -1.7151 H         1 UNK         0.0934 
     88 H88        28.7386    1.5400   -3.6641 H         1 UNK         0.0739 
     89 H89        27.1220   -0.7699   -3.5370 H         1 UNK         0.3093 
     90 H90        27.3919   -1.7241   -7.0011 H         1 UNK         0.0818 
     91 H91        29.4261   -2.6652   -6.0070 H         1 UNK         0.0819 
     92 H92        28.6212   -2.9338   -4.4798 H         1 UNK         0.0819 
     93 H93        28.1358   -3.8532   -5.9031 H         1 UNK         0.0819 
     94 H94        26.0821   -2.7088   -4.5839 H         1 UNK         0.3041 
     95 H95        22.9877   -1.0948   -5.2520 H         1 UNK         0.0784 
     96 H96        22.7819   -2.9798   -6.8403 H         1 UNK         0.0793 
     97 H97        23.6331   -4.0488   -5.7379 H         1 UNK         0.0793 
     98 H98        22.0528   -3.4045   -5.2995 H         1 UNK         0.0793 
     99 H99        23.8342   -3.1368   -3.3858 H         1 UNK         0.3024 
    100 H100       25.2648   -0.9021   -1.0213 H         1 UNK         0.1171 
    101 H101       23.5361   -1.7741    0.5254 H         1 UNK         0.0786 
    102 H102       22.8258   -0.5910   -0.5592 H         1 UNK         0.0786 
    103 H103       22.5442   -2.3049   -0.8343 H         1 UNK         0.0786 
    104 H104       24.6410   -3.6533   -0.7956 H         1 UNK         0.2977 
    105 H105       25.2413    1.1779   -4.3598 H         1 UNK         0.3127 
    106 H106       24.7488    3.8657   -5.0989 H         1 UNK         0.0770 
    107 H107       23.2947    1.3076   -5.9611 H         1 UNK         0.0814 
    108 H108       22.6603    2.9413   -6.0930 H         1 UNK         0.0814 
    109 H109       22.9568    2.2446   -4.5074 H         1 UNK         0.0814 
    110 H110       25.6716    1.0374   -7.1270 H         1 UNK         0.2983 
    111 H111       25.6131    2.4308   -9.6194 H         1 UNK         0.0947 
    112 H112       26.8641    0.4352  -10.4549 H         1 UNK         0.0806 
    113 H113       25.4988   -0.0445   -9.4601 H         1 UNK         0.0806 
    114 H114       27.1325   -0.1059   -8.8030 H         1 UNK         0.0806 
    115 H115       28.2460    1.7984   -7.3062 H         1 UNK         0.3000 
    116 H116       30.2092    2.6156   -6.8846 H         1 UNK         0.0850 
    117 H117       30.9325    4.8668   -7.6107 H         1 UNK         0.0810 
    118 H118       29.2613    4.9002   -7.0689 H         1 UNK         0.0810 
    119 H119       29.6347    4.9457   -8.7914 H         1 UNK         0.0810 
    120 H120       29.6127    2.7813  -10.3775 H         1 UNK         0.3040 
    121 H121       32.2279    2.3827  -11.3513 H         1 UNK         0.0766 
    122 H122       30.3313    3.1600  -12.7528 H         1 UNK         0.0812 
    123 H123       29.5301    1.5978  -12.5879 H         1 UNK         0.0812 
    124 H124       31.0489    1.7255  -13.4661 H         1 UNK         0.0812 
    125 H125       30.1422    0.0784   -9.8488 H         1 UNK         0.3205 
    126 H126       31.1522   -2.3940  -10.7936 H         1 UNK         0.0754 
    127 H127       30.2562   -3.2345   -8.5793 H         1 UNK         0.0769 
    128 H128       29.0991   -2.2249   -9.4298 H         1 UNK         0.0769 
    129 H129       30.0062   -1.5689   -8.0684 H         1 UNK         0.0769 
    130 H130       32.5922   -0.0150   -8.6181 H         1 UNK         0.2981 
    131 H131       34.7831   -1.8339   -7.8222 H         1 UNK         0.0541 
    132 H132       35.8865    0.1776  -11.0579 H         1 UNK         0.3459 
    133 H133       34.2138   -0.1867  -10.7192 H         1 UNK         0.3459 
    134 H134       33.9396    0.9624   -6.9286 H         1 UNK         0.0612 
    135 H135       35.5379    0.3685   -6.5922 H         1 UNK         0.0612 
    136 H136       31.8972    0.3492   -5.6490 H         1 UNK         0.0624 
    137 H137       31.7676   -1.2943   -6.2353 H         1 UNK         0.0624 
@<TRIPOS>BOND
     1    1    2 1    
     2    1   72 1    
     3    1   73 1    
     4    1   74 1    
     5    2    3 2    
     6    2    4 am   BACKBONE|DICT|INTERRES
     7    4    5 1    
     8    4   75 1    
     9    5    6 1    
    10    5   35 1    
    11    5   76 1    
    12    6    7 1    
    13    6   77 1    
    14    6   78 1    
    15    7    8 1    
    16    8    9 1    
    17    8   79 1    
    18    8   80 1    
    19    9   10 ar   
    20    9   14 ar   
    21   10   11 ar   
    22   10   81 1    
    23   11   12 ar   
    24   11   71 1    
    25   12   13 ar   
    26   12   82 1    
    27   13   14 ar   
    28   13   15 1    
    29   14   83 1    
    30   15   16 1    
    31   15   84 1    
    32   15   85 1    
    33   16   17 1    
    34   17   18 1    
    35   17   86 1    
    36   17   87 1    
    37   18   19 1    
    38   18   37 1    
    39   18   88 1    
    40   19   20 am   BACKBONE|DICT|INTERRES
    41   19   89 1    
    42   20   21 2    
    43   20   22 1    
    44   22   23 1    
    45   22   24 1    
    46   22   90 1    
    47   23   91 1    
    48   23   92 1    
    49   23   93 1    
    50   24   25 am   BACKBONE|DICT|INTERRES
    51   24   94 1    
    52   25   26 2    
    53   25   27 1    
    54   27   28 1    
    55   27   29 1    
    56   27   95 1    
    57   28   96 1    
    58   28   97 1    
    59   28   98 1    
    60   29   30 am   BACKBONE|DICT|INTERRES
    61   29   99 1    
    62   30   31 2    
    63   30   32 1    
    64   32   33 1    
    65   32   34 1    
    66   32  100 1    
    67   33  101 1    
    68   33  102 1    
    69   33  103 1    
    70   34   35 am   BACKBONE|DICT|INTERRES
    71   34  104 1    
    72   35   36 2    
    73   37   38 2    
    74   37   39 am   BACKBONE|DICT|INTERRES
    75   39   40 1    
    76   39  105 1    
    77   40   41 1    
    78   40   42 1    
    79   40  106 1    
    80   41  107 1    
    81   41  108 1    
    82   41  109 1    
    83   42   43 2    
    84   42   44 am   BACKBONE|DICT|INTERRES
    85   44   45 1    
    86   44  110 1    
    87   45   46 1    
    88   45   47 1    
    89   45  111 1    
    90   46  112 1    
    91   46  113 1    
    92   46  114 1    
    93   47   48 2    
    94   47   49 am   BACKBONE|DICT|INTERRES
    95   49   50 1    
    96   49  115 1    
    97   50   51 1    
    98   50   52 1    
    99   50  116 1    
   100   51  117 1    
   101   51  118 1    
   102   51  119 1    
   103   52   53 2    
   104   52   54 am   BACKBONE|DICT|INTERRES
   105   54   55 1    
   106   54  120 1    
   107   55   56 1    
   108   55   57 1    
   109   55  121 1    
   110   56  122 1    
   111   56  123 1    
   112   56  124 1    
   113   57   58 2    
   114   57   59 am   BACKBONE|DICT|INTERRES
   115   59   60 1    
   116   59  125 1    
   117   60   61 1    
   118   60   62 1    
   119   60  126 1    
   120   61  127 1    
   121   61  128 1    
   122   61  129 1    
   123   62   63 2    
   124   62   64 am   BACKBONE|DICT|INTERRES
   125   64   65 1    
   126   64  130 1    
   127   65   66 1    
   128   65   69 1    
   129   65  131 1    
   130   66   67 am   BACKBONE|DICT|INTERRES
   131   66   68 2    
   132   67  132 1    
   133   67  133 1    
   134   69   70 1    
   135   69  134 1    
   136   69  135 1    
   137   70   71 1    
   138   71  136 1    
   139   71  137 1    
@<TRIPOS>SUBSTRUCTURE
     1 UNK         1 GROUP             0       ****    0 ROOT    
