@<TRIPOS>MOLECULE
3R137
137   139    1
SMALL
USER_CHARGES


@<TRIPOS>ATOM
      1 CA         25.9104   -2.2609    3.4222 C.3       0 UNK        -0.2020 
      2 C          26.4937   -2.2578    2.0170 C.2       0 UNK         0.4855 
      3 O          26.0816   -1.4491    1.1850 O.2       0 UNK        -0.5197 
      4 N          27.4553   -3.1495    1.7483 N.am      1 UNK        -0.4892 
      5 CA         28.0974   -3.3236    0.4420 C.3       1 UNK         0.0835 
      6 C6         29.3817   -4.1845    0.5504 C.3       12 UNK        -0.0855 
      7 S7         30.7413   -3.2263    1.3056 S.3       12 UNK        -0.2931 
      8 C8         32.0731   -3.3431    0.0550 C.3       12 UNK         0.0378 
      9 C9         31.6446   -3.0066   -1.3732 C.ar      12 UNK        -0.0802 
     10 C10        32.1279   -3.7805   -2.4341 C.ar      12 UNK        -0.0944 
     11 C11        31.7479   -3.5052   -3.7510 C.ar      12 UNK        -0.0787 
     12 C12        30.8513   -2.4635   -4.0030 C.ar      12 UNK        -0.0862 
     13 C13        30.3571   -1.6847   -2.9534 C.ar      12 UNK        -0.0733 
     14 C14        30.7779   -1.9413   -1.6454 C.ar      12 UNK        -0.0832 
     15 C15        29.3401   -0.5930   -3.2350 C.3       12 UNK         0.0240 
     16 S16        30.1190    0.8952   -3.9218 S.3       12 UNK        -0.2522 
     17 C17        28.6554    1.9492   -4.1968 C.3       12 UNK        -0.0967 
     18 CA         28.1739    1.9046   -5.6670 C.3       5 UNK         0.0660 
     19 N          27.6588    0.5852   -6.0479 N.am      5 UNK        -0.4015 
     20 C          27.5149    0.1704   -7.3137 C.2       4 UNK         0.4946 
     21 O          27.8277    0.8483   -8.2918 O.2       4 UNK        -0.5353 
     22 CA         26.8842   -1.2168   -7.5348 C.3       4 UNK         0.0277 
     23 CB         27.9724   -2.3007   -7.5544 C.3       4 UNK        -0.1981 
     24 N          25.8682   -1.5888   -6.5466 N.am      4 UNK        -0.4209 
     25 C          24.7828   -0.8758   -6.2124 C.2       3 UNK         0.4942 
     26 O          24.5027    0.2102   -6.7187 O.2       3 UNK        -0.5208 
     27 CA         23.8709   -1.4451   -5.1083 C.3       3 UNK         0.0250 
     28 CB         22.5535   -1.9534   -5.7153 C.3       3 UNK        -0.1990 
     29 N          24.4809   -2.5169   -4.3089 N.am      3 UNK        -0.4232 
     30 C          25.5331   -2.3620   -3.4936 C.2       2 UNK         0.4993 
     31 O          26.1191   -1.2883   -3.3268 O.2       2 UNK        -0.5286 
     32 CA         26.0531   -3.6295   -2.8059 C.3       2 UNK         0.0209 
     33 CB         26.8441   -4.5064   -3.7955 C.3       2 UNK        -0.1931 
     34 N          26.9283   -3.2414   -1.7059 N.am      2 UNK        -0.4546 
     35 C          27.1089   -3.9276   -0.5734 C.2       1 UNK         0.5154 
     36 O          26.5513   -4.9983   -0.3190 O.2       1 UNK        -0.5181 
     37 C          27.1547    3.0272   -5.9507 C.2       5 UNK         0.5014 
     38 O          27.5688    4.1275   -6.3166 O.2       5 UNK        -0.5248 
     39 N          25.8514    2.7390   -5.8109 N.am      6 UNK        -0.4434 
     40 CA         24.7655    3.6656   -6.1469 C.3       6 UNK         0.0363 
     41 CB         23.4755    3.2432   -5.4247 C.3       6 UNK        -0.1936 
     42 C          24.5424    3.7486   -7.6658 C.2       6 UNK         0.5081 
     43 O          24.2570    4.8295   -8.1808 O.2       6 UNK        -0.5248 
     44 N          24.7133    2.6135   -8.3581 N.am      7 UNK        -0.4718 
     45 CA         24.6755    2.5003   -9.8194 C.3       7 UNK         0.0273 
     46 CB         24.5342    1.0161  -10.1947 C.3       7 UNK        -0.1935 
     47 C          25.9038    3.1118  -10.5237 C.2       7 UNK         0.5018 
     48 O          25.8547    3.3027  -11.7393 O.2       7 UNK        -0.5186 
     49 N          26.9723    3.3878   -9.7596 N.am      8 UNK        -0.4240 
     50 CA         28.2849    3.8846  -10.1887 C.3       8 UNK         0.0235 
     51 CB         28.1775    5.3008  -10.7940 C.3       8 UNK        -0.2000 
     52 C          29.0196    2.8826  -11.1011 C.2       8 UNK         0.4941 
     53 O          29.6133    3.2756  -12.1072 O.2       8 UNK        -0.5273 
     54 N          28.9680    1.6017  -10.7195 N.am      9 UNK        -0.4262 
     55 CA         29.5915    0.4711  -11.4057 C.3       9 UNK         0.0264 
     56 CB         28.5261   -0.2586  -12.2464 C.3       9 UNK        -0.1955 
     57 C          30.2746   -0.4455  -10.3762 C.2       9 UNK         0.5031 
     58 O          30.1793   -1.6700  -10.4806 O.2       9 UNK        -0.5390 
     59 N          30.9206    0.1699   -9.3755 N.am      10 UNK        -0.4204 
     60 CA         31.5881   -0.4903   -8.2522 C.3       10 UNK         0.0237 
     61 CB         31.9938    0.5773   -7.2225 C.3       10 UNK        -0.1985 
     62 C          32.8106   -1.3242   -8.6739 C.2       10 UNK         0.4970 
     63 O          33.3989   -1.0844   -9.7310 O.2       10 UNK        -0.4914 
     64 N          33.1841   -2.2658   -7.8015 N.am      11 UNK        -0.4285 
     65 CA         34.3417   -3.1625   -7.9440 C.3       11 UNK         0.1007 
     66 C          35.7398   -2.4787   -7.8511 C.2       11 UNK         0.5703 
     67 N          35.8462   -1.2289   -7.4148 N.am      11 UNK        -0.7361 
     68 O          36.7463   -3.0945   -8.1947 O.2       11 UNK        -0.4986 
     69 C69        34.2242   -4.3785   -6.9836 C.3       12 UNK        -0.0947 
     70 S70        34.0409   -3.8933   -5.2304 S.3       12 UNK        -0.2240 
     71 C71        32.3052   -4.3317   -4.9000 C.3       12 UNK         0.0194 
     72 H72        26.3740   -3.0173    4.0553 H         1 UNK         0.0906 
     73 H73        26.0586   -1.2889    3.8919 H         1 UNK         0.0906 
     74 H74        24.8400   -2.4610    3.3833 H         1 UNK         0.0906 
     75 H75        27.7488   -3.7962    2.4666 H         1 UNK         0.3140 
     76 H76        28.3768   -2.3316    0.0809 H         1 UNK         0.1085 
     77 H77        29.2014   -5.0803    1.1476 H         1 UNK         0.0836 
     78 H78        29.6949   -4.5477   -0.4300 H         1 UNK         0.0836 
     79 H79        32.4821   -4.3539    0.0969 H         1 UNK         0.0731 
     80 H80        32.8837   -2.6726    0.3432 H         1 UNK         0.0731 
     81 H81        32.8125   -4.5953   -2.2402 H         1 UNK         0.1312 
     82 H82        30.5366   -2.2529   -5.0156 H         1 UNK         0.1406 
     83 H83        30.4116   -1.3273   -0.8342 H         1 UNK         0.1631 
     84 H84        28.7904   -0.3324   -2.3290 H         1 UNK         0.0717 
     85 H85        28.6089   -0.9750   -3.9458 H         1 UNK         0.0717 
     86 H86        27.8534    1.6690   -3.5108 H         1 UNK         0.0934 
     87 H87        28.9434    2.9662   -3.9216 H         1 UNK         0.0934 
     88 H88        29.0369    2.1154   -6.3022 H         1 UNK         0.0739 
     89 H89        27.3557   -0.0214   -5.2993 H         1 UNK         0.3093 
     90 H90        26.3970   -1.2034   -8.5110 H         1 UNK         0.0818 
     91 H91        27.5538   -3.2822   -7.7776 H         1 UNK         0.0819 
     92 H92        28.7137   -2.0920   -8.3242 H         1 UNK         0.0819 
     93 H93        28.4981   -2.3676   -6.6012 H         1 UNK         0.0819 
     94 H94        25.9998   -2.4739   -6.0812 H         1 UNK         0.3041 
     95 H95        23.6386   -0.6185   -4.4333 H         1 UNK         0.0784 
     96 H96        22.0592   -1.1682   -6.2897 H         1 UNK         0.0793 
     97 H97        22.7168   -2.7954   -6.3892 H         1 UNK         0.0793 
     98 H98        21.8552   -2.2715   -4.9409 H         1 UNK         0.0793 
     99 H99        24.0644   -3.4334   -4.3981 H         1 UNK         0.3024 
    100 H100       25.1964   -4.1847   -2.4160 H         1 UNK         0.1171 
    101 H101       26.2212   -4.8254   -4.6319 H         1 UNK         0.0786 
    102 H102       27.2159   -5.4100   -3.3119 H         1 UNK         0.0786 
    103 H103       27.7031   -3.9745   -4.2076 H         1 UNK         0.0786 
    104 H104       27.3388   -2.3228   -1.8157 H         1 UNK         0.2977 
    105 H105       25.5771    1.7921   -5.5848 H         1 UNK         0.3127 
    106 H106       25.0368    4.6633   -5.7943 H         1 UNK         0.0770 
    107 H107       23.1297    2.2602   -5.7454 H         1 UNK         0.0814 
    108 H108       22.6702    3.9507   -5.6263 H         1 UNK         0.0814 
    109 H109       23.6169    3.2137   -4.3443 H         1 UNK         0.0814 
    110 H110       24.8594    1.7530   -7.8364 H         1 UNK         0.2983 
    111 H111       23.7933    3.0340  -10.1797 H         1 UNK         0.0947 
    112 H112       24.4117    0.8956  -11.2719 H         1 UNK         0.0806 
    113 H113       23.6656    0.5633   -9.7159 H         1 UNK         0.0806 
    114 H114       25.4155    0.4452   -9.9030 H         1 UNK         0.0806 
    115 H115       26.9014    3.1432   -8.7813 H         1 UNK         0.3000 
    116 H116       28.8863    3.9628   -9.2815 H         1 UNK         0.0850 
    117 H117       29.1666    5.7186  -10.9851 H         1 UNK         0.0810 
    118 H118       27.6633    5.9827  -10.1167 H         1 UNK         0.0810 
    119 H119       27.6388    5.2989  -11.7420 H         1 UNK         0.0810 
    120 H120       28.4813    1.3690   -9.8508 H         1 UNK         0.3040 
    121 H121       30.3785    0.8256  -12.0746 H         1 UNK         0.0766 
    122 H122       28.0653    0.4137  -12.9704 H         1 UNK         0.0812 
    123 H123       27.7337   -0.6680  -11.6185 H         1 UNK         0.0812 
    124 H124       28.9645   -1.0859  -12.8057 H         1 UNK         0.0812 
    125 H125       30.9626    1.1777   -9.3946 H         1 UNK         0.3205 
    126 H126       30.8630   -1.1606   -7.7874 H         1 UNK         0.0754 
    127 H127       32.4221    0.1235   -6.3276 H         1 UNK         0.0769 
    128 H128       31.1336    1.1622   -6.8993 H         1 UNK         0.0769 
    129 H129       32.7352    1.2678   -7.6268 H         1 UNK         0.0769 
    130 H130       32.6794   -2.3589   -6.9336 H         1 UNK         0.2981 
    131 H131       34.2941   -3.5615   -8.9590 H         1 UNK         0.0541 
    132 H132       36.7566   -0.7997   -7.3659 H         1 UNK         0.3459 
    133 H133       35.0291   -0.7158   -7.1290 H         1 UNK         0.3459 
    134 H134       33.3748   -4.9964   -7.2784 H         1 UNK         0.0612 
    135 H135       35.0958   -5.0295   -7.0723 H         1 UNK         0.0612 
    136 H136       32.2404   -5.3944   -4.6619 H         1 UNK         0.0624 
    137 H137       31.7048   -4.1782   -5.7980 H         1 UNK         0.0624 
@<TRIPOS>BOND
     1    1    2 1    
     2    1   72 1    
     3    1   73 1    
     4    1   74 1    
     5    2    3 2    
     6    2    4 am   BACKBONE|DICT|INTERRES
     7    4    5 1    
     8    4   75 1    
     9    5    6 1    
    10    5   35 1    
    11    5   76 1    
    12    6    7 1    
    13    6   77 1    
    14    6   78 1    
    15    7    8 1    
    16    8    9 1    
    17    8   79 1    
    18    8   80 1    
    19    9   10 ar   
    20    9   14 ar   
    21   10   11 ar   
    22   10   81 1    
    23   11   12 ar   
    24   11   71 1    
    25   12   13 ar   
    26   12   82 1    
    27   13   14 ar   
    28   13   15 1    
    29   14   83 1    
    30   15   16 1    
    31   15   84 1    
    32   15   85 1    
    33   16   17 1    
    34   17   18 1    
    35   17   86 1    
    36   17   87 1    
    37   18   19 1    
    38   18   37 1    
    39   18   88 1    
    40   19   20 am   BACKBONE|DICT|INTERRES
    41   19   89 1    
    42   20   21 2    
    43   20   22 1    
    44   22   23 1    
    45   22   24 1    
    46   22   90 1    
    47   23   91 1    
    48   23   92 1    
    49   23   93 1    
    50   24   25 am   BACKBONE|DICT|INTERRES
    51   24   94 1    
    52   25   26 2    
    53   25   27 1    
    54   27   28 1    
    55   27   29 1    
    56   27   95 1    
    57   28   96 1    
    58   28   97 1    
    59   28   98 1    
    60   29   30 am   BACKBONE|DICT|INTERRES
    61   29   99 1    
    62   30   31 2    
    63   30   32 1    
    64   32   33 1    
    65   32   34 1    
    66   32  100 1    
    67   33  101 1    
    68   33  102 1    
    69   33  103 1    
    70   34   35 am   BACKBONE|DICT|INTERRES
    71   34  104 1    
    72   35   36 2    
    73   37   38 2    
    74   37   39 am   BACKBONE|DICT|INTERRES
    75   39   40 1    
    76   39  105 1    
    77   40   41 1    
    78   40   42 1    
    79   40  106 1    
    80   41  107 1    
    81   41  108 1    
    82   41  109 1    
    83   42   43 2    
    84   42   44 am   BACKBONE|DICT|INTERRES
    85   44   45 1    
    86   44  110 1    
    87   45   46 1    
    88   45   47 1    
    89   45  111 1    
    90   46  112 1    
    91   46  113 1    
    92   46  114 1    
    93   47   48 2    
    94   47   49 am   BACKBONE|DICT|INTERRES
    95   49   50 1    
    96   49  115 1    
    97   50   51 1    
    98   50   52 1    
    99   50  116 1    
   100   51  117 1    
   101   51  118 1    
   102   51  119 1    
   103   52   53 2    
   104   52   54 am   BACKBONE|DICT|INTERRES
   105   54   55 1    
   106   54  120 1    
   107   55   56 1    
   108   55   57 1    
   109   55  121 1    
   110   56  122 1    
   111   56  123 1    
   112   56  124 1    
   113   57   58 2    
   114   57   59 am   BACKBONE|DICT|INTERRES
   115   59   60 1    
   116   59  125 1    
   117   60   61 1    
   118   60   62 1    
   119   60  126 1    
   120   61  127 1    
   121   61  128 1    
   122   61  129 1    
   123   62   63 2    
   124   62   64 am   BACKBONE|DICT|INTERRES
   125   64   65 1    
   126   64  130 1    
   127   65   66 1    
   128   65   69 1    
   129   65  131 1    
   130   66   67 am   BACKBONE|DICT|INTERRES
   131   66   68 2    
   132   67  132 1    
   133   67  133 1    
   134   69   70 1    
   135   69  134 1    
   136   69  135 1    
   137   70   71 1    
   138   71  136 1    
   139   71  137 1    
@<TRIPOS>SUBSTRUCTURE
     1 UNK         1 GROUP             0       ****    0 ROOT    
