@<TRIPOS>MOLECULE
3R137
137   139    1
SMALL
USER_CHARGES


@<TRIPOS>ATOM
      1 CA         27.2267   -7.0199    0.0551 C.3       0 UNK        -0.2020 
      2 C          27.4362   -5.5945   -0.4317 C.2       0 UNK         0.4855 
      3 O          27.4129   -5.3557   -1.6387 O.2       0 UNK        -0.5197 
      4 N          27.6327   -4.6505    0.4998 N.am      1 UNK        -0.4892 
      5 CA         27.8854   -3.2096    0.3106 C.3       1 UNK         0.0835 
      6 C6         29.1482   -2.8860   -0.5289 C.3       12 UNK        -0.0855 
      7 S7         30.6809   -3.5358    0.2264 S.3       12 UNK        -0.2931 
      8 C8         31.1348   -4.9015   -0.8950 C.3       12 UNK         0.0378 
      9 C9         31.3996   -4.4155   -2.3127 C.ar      12 UNK        -0.0802 
     10 C10        32.5093   -3.6106   -2.5848 C.ar      12 UNK        -0.0944 
     11 C11        32.7271   -3.1158   -3.8734 C.ar      12 UNK        -0.0787 
     12 C12        31.8448   -3.4598   -4.9020 C.ar      12 UNK        -0.0862 
     13 C13        30.7266   -4.2570   -4.6399 C.ar      12 UNK        -0.0733 
     14 C14        30.5170   -4.7435   -3.3465 C.ar      12 UNK        -0.0832 
     15 C15        29.7205   -4.5605   -5.7413 C.3       12 UNK         0.0240 
     16 S16        28.1488   -3.6751   -5.4750 S.3       12 UNK        -0.2522 
     17 C17        28.6688   -1.9301   -5.6067 C.3       12 UNK        -0.0967 
     18 CA         27.8765   -1.1646   -6.6892 C.3       5 UNK         0.0660 
     19 N          26.4400   -1.1167   -6.4002 N.am      5 UNK        -0.4015 
     20 C          25.5048   -0.7757   -7.2997 C.2       4 UNK         0.4946 
     21 O          25.7597   -0.4800   -8.4651 O.2       4 UNK        -0.5353 
     22 CA         24.0443   -0.6990   -6.8202 C.3       4 UNK         0.0277 
     23 CB         23.3614   -2.0678   -6.9669 C.3       4 UNK        -0.1981 
     24 N          23.9058   -0.2314   -5.4408 N.am      4 UNK        -0.4209 
     25 C          24.3846    0.9247   -4.9584 C.2       3 UNK         0.4942 
     26 O          24.9226    1.7844   -5.6565 O.2       3 UNK        -0.5208 
     27 CA         24.3111    1.1281   -3.4339 C.3       3 UNK         0.0250 
     28 CB         23.1247    2.0348   -3.0715 C.3       3 UNK        -0.1990 
     29 N          24.2230   -0.1238   -2.6683 N.am      3 UNK        -0.4232 
     30 C          25.1510   -1.0927   -2.6646 C.2       2 UNK         0.4993 
     31 O          26.1935   -1.0467   -3.3232 O.2       2 UNK        -0.5286 
     32 CA         24.8057   -2.3606   -1.8684 C.3       2 UNK         0.0209 
     33 CB         24.1646   -3.4073   -2.7949 C.3       2 UNK        -0.1931 
     34 N          25.9847   -2.9517   -1.2382 N.am      2 UNK        -0.4546 
     35 C          26.6594   -2.4272   -0.2094 C.2       1 UNK         0.5154 
     36 O          26.3307   -1.3804    0.3519 O.2       1 UNK        -0.5181 
     37 C          28.4717    0.2415   -6.8989 C.2       5 UNK         0.5014 
     38 O          29.3986    0.3877   -7.6979 O.2       5 UNK        -0.5248 
     39 N          27.9359    1.2548   -6.2043 N.am      6 UNK        -0.4434 
     40 CA         28.3017    2.6555   -6.4134 C.3       6 UNK         0.0363 
     41 CB         27.8847    3.5024   -5.2007 C.3       6 UNK        -0.1936 
     42 C          27.6875    3.1945   -7.7138 C.2       6 UNK         0.5081 
     43 O          28.3930    3.8360   -8.4909 O.2       6 UNK        -0.5248 
     44 N          26.4049    2.8814   -7.9537 N.am      7 UNK        -0.4718 
     45 CA         25.6617    3.2549   -9.1630 C.3       7 UNK         0.0273 
     46 CB         24.1870    2.8537   -9.0053 C.3       7 UNK        -0.1935 
     47 C          26.2526    2.6594  -10.4541 C.2       7 UNK         0.5018 
     48 O          26.3278    3.3604  -11.4636 O.2       7 UNK        -0.5186 
     49 N          26.6945    1.3955  -10.3901 N.am      8 UNK        -0.4240 
     50 CA         27.3924    0.6924  -11.4714 C.3       8 UNK         0.0235 
     51 CB         27.3078   -0.8226  -11.2170 C.3       8 UNK        -0.2000 
     52 C          28.8636    1.1170  -11.6456 C.2       8 UNK         0.4941 
     53 O          29.4942    0.6712  -12.6051 O.2       8 UNK        -0.5273 
     54 N          29.3923    1.9343  -10.7206 N.am      9 UNK        -0.4262 
     55 CA         30.7805    2.4030  -10.6349 C.3       9 UNK         0.0264 
     56 CB         31.1459    3.2945  -11.8412 C.3       9 UNK        -0.1955 
     57 C          31.7982    1.2693  -10.3909 C.2       9 UNK         0.5031 
     58 O          32.9563    1.3886  -10.7950 O.2       9 UNK        -0.5390 
     59 N          31.3627    0.2062   -9.7011 N.am      10 UNK        -0.4204 
     60 CA         32.2144   -0.8830   -9.2200 C.3       10 UNK         0.0237 
     61 CB         31.3643   -2.1481   -9.0107 C.3       10 UNK        -0.1985 
     62 C          32.9366   -0.4936   -7.9199 C.2       10 UNK         0.4970 
     63 O          34.0687   -0.9291   -7.7102 O.2       10 UNK        -0.4914 
     64 N          32.2759    0.3244   -7.0903 N.am      11 UNK        -0.4285 
     65 CA         32.7979    0.8713   -5.8289 C.3       11 UNK         0.1007 
     66 C          32.6116    2.4116   -5.7057 C.2       11 UNK         0.5703 
     67 N          32.2633    3.1222   -6.7725 N.am      11 UNK        -0.7361 
     68 O          32.8027    2.9802   -4.6336 O.2       11 UNK        -0.4986 
     69 C69        32.2506    0.0821   -4.6027 C.3       12 UNK        -0.0947 
     70 S70        33.5829   -0.5023   -3.5012 S.3       12 UNK        -0.2240 
     71 C71        33.8960   -2.1802   -4.1430 C.3       12 UNK         0.0194 
     72 H72        27.9916   -7.6736   -0.3633 H         1 UNK         0.0906 
     73 H73        26.2522   -7.3862   -0.2670 H         1 UNK         0.0906 
     74 H74        27.2753   -7.0934    1.1413 H         1 UNK         0.0906 
     75 H75        27.6109   -4.9344    1.4699 H         1 UNK         0.3140 
     76 H76        28.0674   -2.8229    1.3151 H         1 UNK         0.1085 
     77 H77        29.2743   -1.8051   -0.6183 H         1 UNK         0.0836 
     78 H78        29.0354   -3.2497   -1.5501 H         1 UNK         0.0836 
     79 H79        32.0319   -5.3894   -0.5113 H         1 UNK         0.0731 
     80 H80        30.3487   -5.6570   -0.8819 H         1 UNK         0.0731 
     81 H81        33.1831   -3.3378   -1.7838 H         1 UNK         0.1312 
     82 H82        32.0091   -3.0729   -5.8985 H         1 UNK         0.1406 
     83 H83        29.6422   -5.3461   -3.1401 H         1 UNK         0.1631 
     84 H84        29.5232   -5.6331   -5.7644 H         1 UNK         0.0717 
     85 H85        30.1204   -4.2997   -6.7225 H         1 UNK         0.0717 
     86 H86        28.5517   -1.4609   -4.6278 H         1 UNK         0.0934 
     87 H87        29.7343   -1.8916   -5.8332 H         1 UNK         0.0934 
     88 H88        28.0030   -1.6986   -7.6339 H         1 UNK         0.0739 
     89 H89        26.1715   -1.3158   -5.4426 H         1 UNK         0.3093 
     90 H90        23.5226    0.0144   -7.4601 H         1 UNK         0.0818 
     91 H91        23.4324   -2.4297   -7.9938 H         1 UNK         0.0819 
     92 H92        23.8199   -2.8207   -6.3241 H         1 UNK         0.0819 
     93 H93        22.3014   -2.0127   -6.7185 H         1 UNK         0.0819 
     94 H94        23.4678   -0.8659   -4.7902 H         1 UNK         0.3041 
     95 H95        25.2323    1.6323   -3.1341 H         1 UNK         0.0784 
     96 H96        23.1805    2.9830   -3.6086 H         1 UNK         0.0793 
     97 H97        22.1696    1.5729   -3.3248 H         1 UNK         0.0793 
     98 H98        23.1141    2.2694   -2.0068 H         1 UNK         0.0793 
     99 H99        23.3886   -0.2479   -2.1120 H         1 UNK         0.3024 
    100 H100       24.0957   -2.1030   -1.0791 H         1 UNK         0.1171 
    101 H101       24.8429   -3.7024   -3.5974 H         1 UNK         0.0786 
    102 H102       23.2558   -3.0217   -3.2587 H         1 UNK         0.0786 
    103 H103       23.8885   -4.3071   -2.2447 H         1 UNK         0.0786 
    104 H104       26.3571   -3.8068   -1.6446 H         1 UNK         0.2977 
    105 H105       27.1439    1.0745   -5.6024 H         1 UNK         0.3127 
    106 H106       29.3880    2.7206   -6.5046 H         1 UNK         0.0770 
    107 H107       28.1994    4.5390   -5.3281 H         1 UNK         0.0814 
    108 H108       26.8048    3.5085   -5.0537 H         1 UNK         0.0814 
    109 H109       28.3464    3.1351   -4.2842 H         1 UNK         0.0814 
    110 H110       25.8896    2.3781   -7.2358 H         1 UNK         0.2983 
    111 H111       25.7112    4.3423   -9.2517 H         1 UNK         0.0947 
    112 H112       24.0695    1.7721   -8.9440 H         1 UNK         0.0806 
    113 H113       23.5974    3.1969   -9.8564 H         1 UNK         0.0806 
    114 H114       23.7484    3.2907   -8.1079 H         1 UNK         0.0806 
    115 H115       26.5089    0.8551   -9.5470 H         1 UNK         0.3000 
    116 H116       26.8799    0.9104  -12.4107 H         1 UNK         0.0850 
    117 H117       27.7732   -1.3858  -12.0270 H         1 UNK         0.0810 
    118 H118       26.2721   -1.1557  -11.1468 H         1 UNK         0.0810 
    119 H119       27.8130   -1.1031  -10.2917 H         1 UNK         0.0810 
    120 H120       28.7848    2.2673   -9.9810 H         1 UNK         0.3040 
    121 H121       30.8212    3.0330   -9.7454 H         1 UNK         0.0766 
    122 H122       31.2033    2.7219  -12.7673 H         1 UNK         0.0812 
    123 H123       32.1159    3.7713  -11.6955 H         1 UNK         0.0812 
    124 H124       30.4139    4.0897  -11.9820 H         1 UNK         0.0812 
    125 H125       30.4165    0.2301   -9.3306 H         1 UNK         0.3205 
    126 H126       32.9721   -1.1021   -9.9755 H         1 UNK         0.0754 
    127 H127       31.9855   -2.9852   -8.6893 H         1 UNK         0.0769 
    128 H128       30.8691   -2.4482   -9.9343 H         1 UNK         0.0769 
    129 H129       30.5955   -2.0032   -8.2518 H         1 UNK         0.0769 
    130 H130       31.3228    0.5844   -7.3237 H         1 UNK         0.2981 
    131 H131       33.8835    0.7640   -5.8551 H         1 UNK         0.0541 
    132 H132       32.1576    4.1201   -6.6806 H         1 UNK         0.3459 
    133 H133       32.1721    2.6853   -7.6729 H         1 UNK         0.3459 
    134 H134       31.6553   -0.7712   -4.9206 H         1 UNK         0.0612 
    135 H135       31.5607    0.6827   -4.0072 H         1 UNK         0.0612 
    136 H136       34.7941   -2.5772   -3.6679 H         1 UNK         0.0624 
    137 H137       34.1130   -2.1242   -5.2106 H         1 UNK         0.0624 
@<TRIPOS>BOND
     1    1    2 1    
     2    1   72 1    
     3    1   73 1    
     4    1   74 1    
     5    2    3 2    
     6    2    4 am   BACKBONE|DICT|INTERRES
     7    4    5 1    
     8    4   75 1    
     9    5    6 1    
    10    5   35 1    
    11    5   76 1    
    12    6    7 1    
    13    6   77 1    
    14    6   78 1    
    15    7    8 1    
    16    8    9 1    
    17    8   79 1    
    18    8   80 1    
    19    9   10 ar   
    20    9   14 ar   
    21   10   11 ar   
    22   10   81 1    
    23   11   12 ar   
    24   11   71 1    
    25   12   13 ar   
    26   12   82 1    
    27   13   14 ar   
    28   13   15 1    
    29   14   83 1    
    30   15   16 1    
    31   15   84 1    
    32   15   85 1    
    33   16   17 1    
    34   17   18 1    
    35   17   86 1    
    36   17   87 1    
    37   18   19 1    
    38   18   37 1    
    39   18   88 1    
    40   19   20 am   BACKBONE|DICT|INTERRES
    41   19   89 1    
    42   20   21 2    
    43   20   22 1    
    44   22   23 1    
    45   22   24 1    
    46   22   90 1    
    47   23   91 1    
    48   23   92 1    
    49   23   93 1    
    50   24   25 am   BACKBONE|DICT|INTERRES
    51   24   94 1    
    52   25   26 2    
    53   25   27 1    
    54   27   28 1    
    55   27   29 1    
    56   27   95 1    
    57   28   96 1    
    58   28   97 1    
    59   28   98 1    
    60   29   30 am   BACKBONE|DICT|INTERRES
    61   29   99 1    
    62   30   31 2    
    63   30   32 1    
    64   32   33 1    
    65   32   34 1    
    66   32  100 1    
    67   33  101 1    
    68   33  102 1    
    69   33  103 1    
    70   34   35 am   BACKBONE|DICT|INTERRES
    71   34  104 1    
    72   35   36 2    
    73   37   38 2    
    74   37   39 am   BACKBONE|DICT|INTERRES
    75   39   40 1    
    76   39  105 1    
    77   40   41 1    
    78   40   42 1    
    79   40  106 1    
    80   41  107 1    
    81   41  108 1    
    82   41  109 1    
    83   42   43 2    
    84   42   44 am   BACKBONE|DICT|INTERRES
    85   44   45 1    
    86   44  110 1    
    87   45   46 1    
    88   45   47 1    
    89   45  111 1    
    90   46  112 1    
    91   46  113 1    
    92   46  114 1    
    93   47   48 2    
    94   47   49 am   BACKBONE|DICT|INTERRES
    95   49   50 1    
    96   49  115 1    
    97   50   51 1    
    98   50   52 1    
    99   50  116 1    
   100   51  117 1    
   101   51  118 1    
   102   51  119 1    
   103   52   53 2    
   104   52   54 am   BACKBONE|DICT|INTERRES
   105   54   55 1    
   106   54  120 1    
   107   55   56 1    
   108   55   57 1    
   109   55  121 1    
   110   56  122 1    
   111   56  123 1    
   112   56  124 1    
   113   57   58 2    
   114   57   59 am   BACKBONE|DICT|INTERRES
   115   59   60 1    
   116   59  125 1    
   117   60   61 1    
   118   60   62 1    
   119   60  126 1    
   120   61  127 1    
   121   61  128 1    
   122   61  129 1    
   123   62   63 2    
   124   62   64 am   BACKBONE|DICT|INTERRES
   125   64   65 1    
   126   64  130 1    
   127   65   66 1    
   128   65   69 1    
   129   65  131 1    
   130   66   67 am   BACKBONE|DICT|INTERRES
   131   66   68 2    
   132   67  132 1    
   133   67  133 1    
   134   69   70 1    
   135   69  134 1    
   136   69  135 1    
   137   70   71 1    
   138   71  136 1    
   139   71  137 1    
@<TRIPOS>SUBSTRUCTURE
     1 UNK         1 GROUP             0       ****    0 ROOT    
