@<TRIPOS>MOLECULE
3R137
137   139    1
SMALL
USER_CHARGES


@<TRIPOS>ATOM
      1 CA         27.0682    1.7537    3.0743 C.3       0 UNK        -0.2020 
      2 C          26.8054    1.1717    1.6931 C.2       0 UNK         0.4855 
      3 O          26.0338    1.7465    0.9241 O.2       0 UNK        -0.5197 
      4 N          27.4465    0.0413    1.3702 N.am      1 UNK        -0.4892 
      5 CA         27.2578   -0.6951    0.1154 C.3       1 UNK         0.0835 
      6 C6         28.5002   -1.5624   -0.2140 C.3       12 UNK        -0.0855 
      7 S7         28.6755   -1.8458   -2.0053 S.3       12 UNK        -0.2931 
      8 C8         30.1484   -2.9150   -2.0351 C.3       12 UNK         0.0378 
      9 C9         30.4406   -3.4096   -3.4443 C.ar      12 UNK        -0.0802 
     10 C10        31.6447   -3.0944   -4.0840 C.ar      12 UNK        -0.0944 
     11 C11        31.9057   -3.5691   -5.3739 C.ar      12 UNK        -0.0787 
     12 C12        30.9400   -4.3376   -6.0343 C.ar      12 UNK        -0.0862 
     13 C13        29.7342   -4.6588   -5.4036 C.ar      12 UNK        -0.0733 
     14 C14        29.5014   -4.2070   -4.1028 C.ar      12 UNK        -0.0832 
     15 C15        28.6957   -5.5230   -6.1068 C.3       12 UNK         0.0240 
     16 S16        27.6725   -4.5813   -7.2843 S.3       12 UNK        -0.2522 
     17 C17        26.7380   -3.4525   -6.1905 C.3       12 UNK        -0.0967 
     18 CA         26.6399   -2.0089   -6.7400 C.3       5 UNK         0.0660 
     19 N          25.6832   -1.2067   -5.9725 N.am      5 UNK        -0.4015 
     20 C          25.2425    0.0137   -6.3212 C.2       4 UNK         0.4946 
     21 O          25.6885    0.6427   -7.2823 O.2       4 UNK        -0.5353 
     22 CA         24.1288    0.6458   -5.4552 C.3       4 UNK         0.0277 
     23 CB         23.2545    1.6387   -6.2507 C.3       4 UNK        -0.1981 
     24 N          23.2977   -0.3450   -4.7568 N.am      4 UNK        -0.4209 
     25 C          22.5701   -1.3320   -5.3050 C.2       3 UNK         0.4942 
     26 O          22.3563   -1.4304   -6.5143 O.2       3 UNK        -0.5208 
     27 CA         22.0207   -2.4191   -4.3517 C.3       3 UNK         0.0250 
     28 CB         22.0583   -3.8160   -5.0084 C.3       3 UNK        -0.1990 
     29 N          22.6543   -2.4854   -3.0216 N.am      3 UNK        -0.4232 
     30 C          23.9584   -2.6330   -2.7409 C.2       2 UNK         0.4993 
     31 O          24.8565   -2.6335   -3.5885 O.2       2 UNK        -0.5286 
     32 CA         24.3294   -2.7860   -1.2641 C.3       2 UNK         0.0209 
     33 CB         24.5470   -4.2672   -0.9063 C.3       2 UNK        -0.1931 
     34 N          25.5520   -2.0265   -1.0309 N.am      2 UNK        -0.4546 
     35 C          25.9532   -1.5262    0.1412 C.2       1 UNK         0.5154 
     36 O          25.3462   -1.7099    1.2009 O.2       1 UNK        -0.5181 
     37 C          28.0100   -1.3161   -6.8794 C.2       5 UNK         0.5014 
     38 O          28.5322   -1.2477   -7.9924 O.2       5 UNK        -0.5248 
     39 N          28.5309   -0.7497   -5.7793 N.am      6 UNK        -0.4434 
     40 CA         29.7786    0.0203   -5.7777 C.3       6 UNK         0.0363 
     41 CB         30.1700    0.4112   -4.3446 C.3       6 UNK        -0.1936 
     42 C          29.7296    1.2729   -6.6654 C.2       6 UNK         0.5081 
     43 O          30.7327    1.5946   -7.2985 O.2       6 UNK        -0.5248 
     44 N          28.5726    1.9468   -6.7140 N.am      7 UNK        -0.4718 
     45 CA         28.3450    3.1095   -7.5732 C.3       7 UNK         0.0273 
     46 CB         27.0969    3.8739   -7.1031 C.3       7 UNK        -0.1935 
     47 C          28.2272    2.7098   -9.0516 C.2       7 UNK         0.5018 
     48 O          28.8313    3.3643   -9.9012 O.2       7 UNK        -0.5186 
     49 N          27.4795    1.6310   -9.3257 N.am      8 UNK        -0.4240 
     50 CA         27.2789    1.0681  -10.6627 C.3       8 UNK         0.0235 
     51 CB         26.1960   -0.0217  -10.6037 C.3       8 UNK        -0.2000 
     52 C          28.5728    0.5192  -11.2873 C.2       8 UNK         0.4941 
     53 O          28.8428    0.7952  -12.4568 O.2       8 UNK        -0.5273 
     54 N          29.3523   -0.2339  -10.4998 N.am      9 UNK        -0.4262 
     55 CA         30.6298   -0.8204  -10.9140 C.3       9 UNK         0.0264 
     56 CB         30.8991   -2.0708  -10.0619 C.3       9 UNK        -0.1955 
     57 C          31.8166    0.1601  -10.8402 C.2       9 UNK         0.5031 
     58 O          32.8802   -0.1645  -11.3708 O.2       9 UNK        -0.5390 
     59 N          31.6253    1.3216  -10.1947 N.am      10 UNK        -0.4204 
     60 CA         32.6158    2.3736   -9.9265 C.3       10 UNK         0.0237 
     61 CB         33.0804    3.0473  -11.2356 C.3       10 UNK        -0.1985 
     62 C          33.7801    1.8707   -9.0486 C.2       10 UNK         0.4970 
     63 O          34.9490    2.0927   -9.3721 O.2       10 UNK        -0.4914 
     64 N          33.4256    1.1853   -7.9574 N.am      11 UNK        -0.4285 
     65 CA         34.3480    0.6367   -6.9558 C.3       11 UNK         0.1007 
     66 C          34.9283    1.7406   -6.0321 C.2       11 UNK         0.5703 
     67 N          36.1375    1.5468   -5.5227 N.am      11 UNK        -0.7361 
     68 O          34.2858    2.7489   -5.7429 O.2       11 UNK        -0.4986 
     69 C69        33.6763   -0.4900   -6.1270 C.3       12 UNK        -0.0947 
     70 S70        33.1777   -1.8900   -7.1845 S.3       12 UNK        -0.2240 
     71 C71        33.2477   -3.3013   -6.0411 C.3       12 UNK         0.0194 
     72 H72        27.7811    1.1552    3.6412 H         1 UNK         0.0906 
     73 H73        27.4683    2.7635    2.9863 H         1 UNK         0.0906 
     74 H74        26.1399    1.8031    3.6427 H         1 UNK         0.0906 
     75 H75        28.0349   -0.4074    2.0580 H         1 UNK         0.3140 
     76 H76        27.1439    0.0503   -0.6758 H         1 UNK         0.1085 
     77 H77        28.4765   -2.5171    0.3160 H         1 UNK         0.0836 
     78 H78        29.4099   -1.0565    0.1147 H         1 UNK         0.0836 
     79 H79        30.9991   -2.3639   -1.6312 H         1 UNK         0.0731 
     80 H80        29.9902   -3.7737   -1.3809 H         1 UNK         0.0731 
     81 H81        32.3859   -2.4939   -3.5745 H         1 UNK         0.1312 
     82 H82        31.1334   -4.6987   -7.0353 H         1 UNK         0.1406 
     83 H83        28.5789   -4.4632   -3.5992 H         1 UNK         0.1631 
     84 H84        28.0453   -6.0124   -5.3800 H         1 UNK         0.0717 
     85 H85        29.2004   -6.3250   -6.6474 H         1 UNK         0.0717 
     86 H86        25.7360   -3.8707   -6.0806 H         1 UNK         0.0934 
     87 H87        27.1581   -3.4440   -5.1859 H         1 UNK         0.0934 
     88 H88        26.2256   -2.0782   -7.7482 H         1 UNK         0.0739 
     89 H89        25.2894   -1.6551   -5.1479 H         1 UNK         0.3093 
     90 H90        24.6435    1.2121   -4.6778 H         1 UNK         0.0818 
     91 H91        22.4772    2.0750   -5.6236 H         1 UNK         0.0819 
     92 H92        23.8525    2.4623   -6.6420 H         1 UNK         0.0819 
     93 H93        22.7703    1.1594   -7.1020 H         1 UNK         0.0819 
     94 H94        23.3979   -0.3611   -3.7517 H         1 UNK         0.3041 
     95 H95        20.9747   -2.1611   -4.1792 H         1 UNK         0.0784 
     96 H96        23.0770   -4.1145   -5.2593 H         1 UNK         0.0793 
     97 H97        21.6398   -4.5764   -4.3490 H         1 UNK         0.0793 
     98 H98        21.4759   -3.8374   -5.9304 H         1 UNK         0.0793 
     99 H99        22.0062   -2.4648   -2.2455 H         1 UNK         0.3024 
    100 H100       23.5278   -2.3746   -0.6461 H         1 UNK         0.1171 
    101 H101       23.6466   -4.8525   -1.0972 H         1 UNK         0.0786 
    102 H102       24.7953   -4.3900    0.1480 H         1 UNK         0.0786 
    103 H103       25.3546   -4.7070   -1.4934 H         1 UNK         0.0786 
    104 H104       26.1134   -1.8692   -1.8602 H         1 UNK         0.2977 
    105 H105       28.0523   -0.8566   -4.8969 H         1 UNK         0.3127 
    106 H106       30.5571   -0.6302   -6.1806 H         1 UNK         0.0770 
    107 H107       29.3513    0.9004   -3.8159 H         1 UNK         0.0814 
    108 H108       31.0172    1.0987   -4.3397 H         1 UNK         0.0814 
    109 H109       30.4742   -0.4609   -3.7704 H         1 UNK         0.0814 
    110 H110       27.7774    1.5859   -6.2074 H         1 UNK         0.2983 
    111 H111       29.2043    3.7777   -7.4783 H         1 UNK         0.0947 
    112 H112       26.9358    4.7645   -7.7121 H         1 UNK         0.0806 
    113 H113       27.1996    4.2037   -6.0692 H         1 UNK         0.0806 
    114 H114       26.1948    3.2662   -7.1736 H         1 UNK         0.0806 
    115 H115       26.9837    1.1785   -8.5600 H         1 UNK         0.3000 
    116 H116       26.9167    1.8721  -11.3069 H         1 UNK         0.0850 
    117 H117       26.0046   -0.4372  -11.5938 H         1 UNK         0.0810 
    118 H118       25.2528    0.3772  -10.2297 H         1 UNK         0.0810 
    119 H119       26.4889   -0.8464   -9.9531 H         1 UNK         0.0810 
    120 H120       29.0323   -0.4637   -9.5581 H         1 UNK         0.3040 
    121 H121       30.5463   -1.1399  -11.9550 H         1 UNK         0.0766 
    122 H122       31.8496   -2.5358  -10.3264 H         1 UNK         0.0812 
    123 H123       30.1195   -2.8202  -10.1998 H         1 UNK         0.0812 
    124 H124       30.9373   -1.8271   -9.0006 H         1 UNK         0.0812 
    125 H125       30.7207    1.4676   -9.7664 H         1 UNK         0.3205 
    126 H126       32.0973    3.1311   -9.3364 H         1 UNK         0.0754 
    127 H127       33.7225    3.9037  -11.0260 H         1 UNK         0.0769 
    128 H128       32.2319    3.4125  -11.8143 H         1 UNK         0.0769 
    129 H129       33.6481    2.3632  -11.8670 H         1 UNK         0.0769 
    130 H130       32.4355    1.1394   -7.7264 H         1 UNK         0.2981 
    131 H131       35.1875    0.1954   -7.4973 H         1 UNK         0.0541 
    132 H132       36.6708    0.7202   -5.7435 H         1 UNK         0.3459 
    133 H133       36.5278    2.2453   -4.9096 H         1 UNK         0.3459 
    134 H134       32.8021   -0.1150   -5.5952 H         1 UNK         0.0612 
    135 H135       34.3658   -0.8573   -5.3652 H         1 UNK         0.0612 
    136 H136       33.5475   -4.1840   -6.6077 H         1 UNK         0.0624 
    137 H137       34.0284   -3.1493   -5.2947 H         1 UNK         0.0624 
@<TRIPOS>BOND
     1    1    2 1    
     2    1   72 1    
     3    1   73 1    
     4    1   74 1    
     5    2    3 2    
     6    2    4 am   BACKBONE|DICT|INTERRES
     7    4    5 1    
     8    4   75 1    
     9    5    6 1    
    10    5   35 1    
    11    5   76 1    
    12    6    7 1    
    13    6   77 1    
    14    6   78 1    
    15    7    8 1    
    16    8    9 1    
    17    8   79 1    
    18    8   80 1    
    19    9   10 ar   
    20    9   14 ar   
    21   10   11 ar   
    22   10   81 1    
    23   11   12 ar   
    24   11   71 1    
    25   12   13 ar   
    26   12   82 1    
    27   13   14 ar   
    28   13   15 1    
    29   14   83 1    
    30   15   16 1    
    31   15   84 1    
    32   15   85 1    
    33   16   17 1    
    34   17   18 1    
    35   17   86 1    
    36   17   87 1    
    37   18   19 1    
    38   18   37 1    
    39   18   88 1    
    40   19   20 am   BACKBONE|DICT|INTERRES
    41   19   89 1    
    42   20   21 2    
    43   20   22 1    
    44   22   23 1    
    45   22   24 1    
    46   22   90 1    
    47   23   91 1    
    48   23   92 1    
    49   23   93 1    
    50   24   25 am   BACKBONE|DICT|INTERRES
    51   24   94 1    
    52   25   26 2    
    53   25   27 1    
    54   27   28 1    
    55   27   29 1    
    56   27   95 1    
    57   28   96 1    
    58   28   97 1    
    59   28   98 1    
    60   29   30 am   BACKBONE|DICT|INTERRES
    61   29   99 1    
    62   30   31 2    
    63   30   32 1    
    64   32   33 1    
    65   32   34 1    
    66   32  100 1    
    67   33  101 1    
    68   33  102 1    
    69   33  103 1    
    70   34   35 am   BACKBONE|DICT|INTERRES
    71   34  104 1    
    72   35   36 2    
    73   37   38 2    
    74   37   39 am   BACKBONE|DICT|INTERRES
    75   39   40 1    
    76   39  105 1    
    77   40   41 1    
    78   40   42 1    
    79   40  106 1    
    80   41  107 1    
    81   41  108 1    
    82   41  109 1    
    83   42   43 2    
    84   42   44 am   BACKBONE|DICT|INTERRES
    85   44   45 1    
    86   44  110 1    
    87   45   46 1    
    88   45   47 1    
    89   45  111 1    
    90   46  112 1    
    91   46  113 1    
    92   46  114 1    
    93   47   48 2    
    94   47   49 am   BACKBONE|DICT|INTERRES
    95   49   50 1    
    96   49  115 1    
    97   50   51 1    
    98   50   52 1    
    99   50  116 1    
   100   51  117 1    
   101   51  118 1    
   102   51  119 1    
   103   52   53 2    
   104   52   54 am   BACKBONE|DICT|INTERRES
   105   54   55 1    
   106   54  120 1    
   107   55   56 1    
   108   55   57 1    
   109   55  121 1    
   110   56  122 1    
   111   56  123 1    
   112   56  124 1    
   113   57   58 2    
   114   57   59 am   BACKBONE|DICT|INTERRES
   115   59   60 1    
   116   59  125 1    
   117   60   61 1    
   118   60   62 1    
   119   60  126 1    
   120   61  127 1    
   121   61  128 1    
   122   61  129 1    
   123   62   63 2    
   124   62   64 am   BACKBONE|DICT|INTERRES
   125   64   65 1    
   126   64  130 1    
   127   65   66 1    
   128   65   69 1    
   129   65  131 1    
   130   66   67 am   BACKBONE|DICT|INTERRES
   131   66   68 2    
   132   67  132 1    
   133   67  133 1    
   134   69   70 1    
   135   69  134 1    
   136   69  135 1    
   137   70   71 1    
   138   71  136 1    
   139   71  137 1    
@<TRIPOS>SUBSTRUCTURE
     1 UNK         1 GROUP             0       ****    0 ROOT    
