@<TRIPOS>MOLECULE
3R137
137   139    1
SMALL
USER_CHARGES


@<TRIPOS>ATOM
      1 CA         31.8807   -0.1577    1.1983 C.3       0 UNK        -0.2020 
      2 C          31.2860   -0.1024   -0.2006 C.2       0 UNK         0.4855 
      3 O          32.0186    0.0954   -1.1689 O.2       0 UNK        -0.5197 
      4 N          29.9664   -0.2728   -0.3133 N.am      1 UNK        -0.4892 
      5 CA         29.2046   -0.2413   -1.5625 C.3       1 UNK         0.0835 
      6 C6         29.4577   -1.4711   -2.4822 C.3       12 UNK        -0.0855 
      7 S7         29.1101   -3.0844   -1.6948 S.3       12 UNK        -0.2931 
      8 C8         30.7020   -3.9566   -1.9252 C.3       12 UNK         0.0378 
      9 C9         31.0651   -4.2221   -3.3873 C.ar      12 UNK        -0.0802 
     10 C10        32.4055   -4.1951   -3.7844 C.ar      12 UNK        -0.0944 
     11 C11        32.7685   -4.4366   -5.1172 C.ar      12 UNK        -0.0787 
     12 C12        31.7615   -4.6938   -6.0534 C.ar      12 UNK        -0.0862 
     13 C13        30.4136   -4.7183   -5.6818 C.ar      12 UNK        -0.0733 
     14 C14        30.0824   -4.5165   -4.3369 C.ar      12 UNK        -0.0832 
     15 C15        29.3552   -4.9662   -6.7624 C.3       12 UNK         0.0240 
     16 S16        27.6368   -4.5088   -6.3235 S.3       12 UNK        -0.2522 
     17 C17        27.7995   -2.7319   -5.9392 C.3       12 UNK        -0.0967 
     18 CA         27.1210   -1.8311   -6.9932 C.3       5 UNK         0.0660 
     19 N          25.6698   -2.0267   -7.0424 N.am      5 UNK        -0.4015 
     20 C          24.8835   -1.5805   -8.0313 C.2       4 UNK         0.4946 
     21 O          25.3043   -0.9767   -9.0159 O.2       4 UNK        -0.5353 
     22 CA         23.3699   -1.8107   -7.8945 C.3       4 UNK         0.0277 
     23 CB         22.9754   -3.1603   -8.5147 C.3       4 UNK        -0.1981 
     24 N          22.8849   -1.7453   -6.5148 N.am      4 UNK        -0.4209 
     25 C          22.9713   -0.6755   -5.7115 C.2       3 UNK         0.4942 
     26 O          23.4757    0.3959   -6.0549 O.2       3 UNK        -0.5208 
     27 CA         22.4168   -0.8265   -4.2789 C.3       3 UNK         0.0250 
     28 CB         21.8884   -2.2434   -3.9540 C.3       3 UNK        -0.1990 
     29 N          23.3671   -0.4139   -3.2375 N.am      3 UNK        -0.4232 
     30 C          24.6428   -0.8035   -3.1011 C.2       2 UNK         0.4993 
     31 O          25.2592   -1.4856   -3.9260 O.2       2 UNK        -0.5286 
     32 CA         25.3419   -0.3722   -1.8067 C.3       2 UNK         0.0209 
     33 CB         24.8495   -1.2194   -0.6162 C.3       2 UNK        -0.1931 
     34 N          26.7841   -0.5347   -1.9715 N.am      2 UNK        -0.4546 
     35 C          27.7269    0.0437   -1.2196 C.2       1 UNK         0.5154 
     36 O          27.4656    0.7932   -0.2744 O.2       1 UNK        -0.5181 
     37 C          27.4854   -0.3519   -6.7639 C.2       5 UNK         0.5014 
     38 O          28.4378    0.1342   -7.3755 O.2       5 UNK        -0.5248 
     39 N          26.7148    0.3487   -5.9184 N.am      6 UNK        -0.4434 
     40 CA         26.8434    1.7945   -5.7191 C.3       6 UNK         0.0363 
     41 CB         26.0562    2.2441   -4.4792 C.3       6 UNK        -0.1936 
     42 C          26.4093    2.5854   -6.9629 C.2       6 UNK         0.5081 
     43 O          27.1064    3.5224   -7.3492 O.2       6 UNK        -0.5248 
     44 N          25.2988    2.1718   -7.5919 N.am      7 UNK        -0.4718 
     45 CA         24.7820    2.7552   -8.8357 C.3       7 UNK         0.0273 
     46 CB         23.4045    2.1551   -9.1564 C.3       7 UNK        -0.1935 
     47 C          25.7422    2.5889  -10.0282 C.2       7 UNK         0.5018 
     48 O          25.9134    3.5307  -10.8028 O.2       7 UNK        -0.5186 
     49 N          26.3753    1.4121  -10.1338 N.am      8 UNK        -0.4240 
     50 CA         27.4134    1.0992  -11.1207 C.3       8 UNK         0.0235 
     51 CB         27.5733   -0.4280  -11.2096 C.3       8 UNK        -0.2000 
     52 C          28.7761    1.7540  -10.8230 C.2       8 UNK         0.4941 
     53 O          29.6402    1.7358  -11.7006 O.2       8 UNK        -0.5273 
     54 N          28.9514    2.2956   -9.6074 N.am      9 UNK        -0.4262 
     55 CA         30.1774    2.8819   -9.0566 C.3       9 UNK         0.0264 
     56 CB         30.5666    4.1706   -9.8124 C.3       9 UNK        -0.1955 
     57 C          31.3219    1.8542   -8.9657 C.2       9 UNK         0.5031 
     58 O          32.4293    2.1110   -9.4456 O.2       9 UNK        -0.5390 
     59 N          31.0215    0.6990   -8.3566 N.am      10 UNK        -0.4204 
     60 CA         31.9688   -0.3828   -8.0785 C.3       10 UNK         0.0237 
     61 CB         31.1763   -1.6776   -7.8300 C.3       10 UNK        -0.1985 
     62 C          32.9105   -0.0514   -6.9004 C.2       10 UNK         0.4970 
     63 O          32.8982    1.0695   -6.3860 O.2       10 UNK        -0.4914 
     64 N          33.7268   -1.0374   -6.5030 N.am      11 UNK        -0.4285 
     65 CA         34.7821   -0.9018   -5.4836 C.3       11 UNK         0.1007 
     66 C          34.3168   -0.5520   -4.0370 C.2       11 UNK         0.5703 
     67 N          33.0429   -0.7013   -3.7005 N.am      11 UNK        -0.7361 
     68 O          35.1289   -0.1214   -3.2212 O.2       11 UNK        -0.4986 
     69 C69        35.7886   -2.0872   -5.5519 C.3       12 UNK        -0.0947 
     70 S70        35.4066   -3.5609   -4.5377 S.3       12 UNK        -0.2240 
     71 C71        34.2293   -4.4951   -5.5746 C.3       12 UNK         0.0194 
     72 H72        32.3754    0.7844    1.4329 H         1 UNK         0.0906 
     73 H73        32.6206   -0.9554    1.2584 H         1 UNK         0.0906 
     74 H74        31.1213   -0.3415    1.9581 H         1 UNK         0.0906 
     75 H75        29.3928   -0.3750    0.5141 H         1 UNK         0.3140 
     76 H76        29.5324    0.6433   -2.1134 H         1 UNK         0.1085 
     77 H77        30.4981   -1.4595   -2.8054 H         1 UNK         0.0836 
     78 H78        28.8857   -1.3945   -3.4071 H         1 UNK         0.0836 
     79 H79        31.4862   -3.3733   -1.4392 H         1 UNK         0.0731 
     80 H80        30.6556   -4.9119   -1.4012 H         1 UNK         0.0731 
     81 H81        33.1651   -3.9999   -3.0409 H         1 UNK         0.1312 
     82 H82        32.0296   -4.8858   -7.0837 H         1 UNK         0.1406 
     83 H83        29.0507   -4.5678   -4.0221 H         1 UNK         0.1631 
     84 H84        29.3713   -6.0247   -7.0246 H         1 UNK         0.0717 
     85 H85        29.6268   -4.4196   -7.6669 H         1 UNK         0.0717 
     86 H86        27.3705   -2.5643   -4.9510 H         1 UNK         0.0934 
     87 H87        28.8549   -2.4789   -5.8467 H         1 UNK         0.0934 
     88 H88        27.5234   -2.1031   -7.9718 H         1 UNK         0.0739 
     89 H89        25.2493   -2.4789   -6.2422 H         1 UNK         0.3093 
     90 H90        22.8663   -1.0205   -8.4541 H         1 UNK         0.0818 
     91 H91        23.3057   -3.2227   -9.5528 H         1 UNK         0.0819 
     92 H92        23.4234   -3.9989   -7.9800 H         1 UNK         0.0819 
     93 H93        21.8940   -3.2983   -8.5131 H         1 UNK         0.0819 
     94 H94        22.4600   -2.5827   -6.1436 H         1 UNK         0.3041 
     95 H95        21.5736   -0.1371   -4.2156 H         1 UNK         0.0784 
     96 H96        21.0907   -2.5422   -4.6356 H         1 UNK         0.0793 
     97 H97        22.6775   -2.9955   -4.0024 H         1 UNK         0.0793 
     98 H98        21.4677   -2.2798   -2.9489 H         1 UNK         0.0793 
     99 H99        22.9786    0.1862   -2.5234 H         1 UNK         0.3024 
    100 H100       25.1198    0.6824   -1.6275 H         1 UNK         0.1171 
    101 H101       23.7706   -1.1303   -0.4838 H         1 UNK         0.0786 
    102 H102       25.0751   -2.2771   -0.7585 H         1 UNK         0.0786 
    103 H103       25.3122   -0.9035    0.3189 H         1 UNK         0.0786 
    104 H104       27.0419   -1.1494   -2.7333 H         1 UNK         0.2977 
    105 H105       25.9459   -0.1226   -5.4548 H         1 UNK         0.3127 
    106 H106       27.8981    2.0173   -5.5415 H         1 UNK         0.0770 
    107 H107       24.9983    1.9917   -4.5519 H         1 UNK         0.0814 
    108 H108       26.1225    3.3251   -4.3486 H         1 UNK         0.0814 
    109 H109       26.4550    1.7903   -3.5738 H         1 UNK         0.0814 
    110 H110       24.7555    1.4216   -7.1728 H         1 UNK         0.2983 
    111 H111       24.6542    3.8264   -8.6650 H         1 UNK         0.0947 
    112 H112       23.4703    1.0895   -9.3738 H         1 UNK         0.0806 
    113 H113       22.9642    2.6379  -10.0299 H         1 UNK         0.0806 
    114 H114       22.7093    2.2864   -8.3268 H         1 UNK         0.0806 
    115 H115       26.1030    0.6547   -9.5102 H         1 UNK         0.3000 
    116 H116       27.0820    1.4667  -12.0942 H         1 UNK         0.0850 
    117 H117       28.3120   -0.7039  -11.9632 H         1 UNK         0.0810 
    118 H118       26.6351   -0.9100  -11.4851 H         1 UNK         0.0810 
    119 H119       27.9015   -0.8518  -10.2594 H         1 UNK         0.0810 
    120 H120       28.1734    2.2498   -8.9614 H         1 UNK         0.3040 
    121 H121       29.9415    3.1650   -8.0294 H         1 UNK         0.0766 
    122 H122       30.8569    3.9672  -10.8435 H         1 UNK         0.0812 
    123 H123       31.4111    4.6637   -9.3297 H         1 UNK         0.0812 
    124 H124       29.7417    4.8829   -9.8298 H         1 UNK         0.0812 
    125 H125       30.0771    0.5728   -7.9917 H         1 UNK         0.3205 
    126 H126       32.5874   -0.5242   -8.9671 H         1 UNK         0.0754 
    127 H127       31.8239   -2.5510   -7.8927 H         1 UNK         0.0769 
    128 H128       30.3873   -1.8158   -8.5700 H         1 UNK         0.0769 
    129 H129       30.7144   -1.6761   -6.8434 H         1 UNK         0.0769 
    130 H130       33.6585   -1.9383   -6.9493 H         1 UNK         0.2981 
    131 H131       35.3470   -0.0219   -5.7983 H         1 UNK         0.0541 
    132 H132       32.7404   -0.4383   -2.7651 H         1 UNK         0.3459 
    133 H133       32.3822   -1.0563   -4.3696 H         1 UNK         0.3459 
    134 H134       36.7596   -1.7314   -5.2035 H         1 UNK         0.0612 
    135 H135       35.9596   -2.3940   -6.5849 H         1 UNK         0.0612 
    136 H136       34.5377   -5.5412   -5.5677 H         1 UNK         0.0624 
    137 H137       34.3151   -4.1616   -6.6095 H         1 UNK         0.0624 
@<TRIPOS>BOND
     1    1    2 1    
     2    1   72 1    
     3    1   73 1    
     4    1   74 1    
     5    2    3 2    
     6    2    4 am   BACKBONE|DICT|INTERRES
     7    4    5 1    
     8    4   75 1    
     9    5    6 1    
    10    5   35 1    
    11    5   76 1    
    12    6    7 1    
    13    6   77 1    
    14    6   78 1    
    15    7    8 1    
    16    8    9 1    
    17    8   79 1    
    18    8   80 1    
    19    9   10 ar   
    20    9   14 ar   
    21   10   11 ar   
    22   10   81 1    
    23   11   12 ar   
    24   11   71 1    
    25   12   13 ar   
    26   12   82 1    
    27   13   14 ar   
    28   13   15 1    
    29   14   83 1    
    30   15   16 1    
    31   15   84 1    
    32   15   85 1    
    33   16   17 1    
    34   17   18 1    
    35   17   86 1    
    36   17   87 1    
    37   18   19 1    
    38   18   37 1    
    39   18   88 1    
    40   19   20 am   BACKBONE|DICT|INTERRES
    41   19   89 1    
    42   20   21 2    
    43   20   22 1    
    44   22   23 1    
    45   22   24 1    
    46   22   90 1    
    47   23   91 1    
    48   23   92 1    
    49   23   93 1    
    50   24   25 am   BACKBONE|DICT|INTERRES
    51   24   94 1    
    52   25   26 2    
    53   25   27 1    
    54   27   28 1    
    55   27   29 1    
    56   27   95 1    
    57   28   96 1    
    58   28   97 1    
    59   28   98 1    
    60   29   30 am   BACKBONE|DICT|INTERRES
    61   29   99 1    
    62   30   31 2    
    63   30   32 1    
    64   32   33 1    
    65   32   34 1    
    66   32  100 1    
    67   33  101 1    
    68   33  102 1    
    69   33  103 1    
    70   34   35 am   BACKBONE|DICT|INTERRES
    71   34  104 1    
    72   35   36 2    
    73   37   38 2    
    74   37   39 am   BACKBONE|DICT|INTERRES
    75   39   40 1    
    76   39  105 1    
    77   40   41 1    
    78   40   42 1    
    79   40  106 1    
    80   41  107 1    
    81   41  108 1    
    82   41  109 1    
    83   42   43 2    
    84   42   44 am   BACKBONE|DICT|INTERRES
    85   44   45 1    
    86   44  110 1    
    87   45   46 1    
    88   45   47 1    
    89   45  111 1    
    90   46  112 1    
    91   46  113 1    
    92   46  114 1    
    93   47   48 2    
    94   47   49 am   BACKBONE|DICT|INTERRES
    95   49   50 1    
    96   49  115 1    
    97   50   51 1    
    98   50   52 1    
    99   50  116 1    
   100   51  117 1    
   101   51  118 1    
   102   51  119 1    
   103   52   53 2    
   104   52   54 am   BACKBONE|DICT|INTERRES
   105   54   55 1    
   106   54  120 1    
   107   55   56 1    
   108   55   57 1    
   109   55  121 1    
   110   56  122 1    
   111   56  123 1    
   112   56  124 1    
   113   57   58 2    
   114   57   59 am   BACKBONE|DICT|INTERRES
   115   59   60 1    
   116   59  125 1    
   117   60   61 1    
   118   60   62 1    
   119   60  126 1    
   120   61  127 1    
   121   61  128 1    
   122   61  129 1    
   123   62   63 2    
   124   62   64 am   BACKBONE|DICT|INTERRES
   125   64   65 1    
   126   64  130 1    
   127   65   66 1    
   128   65   69 1    
   129   65  131 1    
   130   66   67 am   BACKBONE|DICT|INTERRES
   131   66   68 2    
   132   67  132 1    
   133   67  133 1    
   134   69   70 1    
   135   69  134 1    
   136   69  135 1    
   137   70   71 1    
   138   71  136 1    
   139   71  137 1    
@<TRIPOS>SUBSTRUCTURE
     1 UNK         1 GROUP             0       ****    0 ROOT    
