@<TRIPOS>MOLECULE
3R137
137   139    1
SMALL
USER_CHARGES


@<TRIPOS>ATOM
      1 CA         24.2108   -7.1518   -2.3232 C.3       0 UNK        -0.2020 
      2 C          24.7635   -6.0178   -1.4727 C.2       0 UNK         0.4855 
      3 O          24.3110   -5.8219   -0.3439 O.2       0 UNK        -0.5197 
      4 N          25.7456   -5.2783   -2.0021 N.am      1 UNK        -0.4892 
      5 CA         26.3584   -4.1119   -1.3549 C.3       1 UNK         0.0835 
      6 C6         27.7066   -3.7242   -2.0137 C.3       12 UNK        -0.0855 
      7 S7         28.9279   -5.0820   -1.9895 S.3       12 UNK        -0.2931 
      8 C8         29.4670   -5.1335   -3.7386 C.3       12 UNK         0.0378 
      9 C9         30.2971   -3.9415   -4.2298 C.ar      12 UNK        -0.0802 
     10 C10        30.7364   -3.9427   -5.5595 C.ar      12 UNK        -0.0944 
     11 C11        31.4912   -2.8802   -6.0671 C.ar      12 UNK        -0.0787 
     12 C12        31.8022   -1.8009   -5.2376 C.ar      12 UNK        -0.0862 
     13 C13        31.3619   -1.7745   -3.9142 C.ar      12 UNK        -0.0733 
     14 C14        30.6300   -2.8521   -3.4119 C.ar      12 UNK        -0.0832 
     15 C15        31.6524   -0.5683   -3.0341 C.3       12 UNK         0.0240 
     16 S16        30.7495    0.9113   -3.5959 S.3       12 UNK        -0.2522 
     17 C17        29.0057    0.3625   -3.5371 C.3       12 UNK        -0.0967 
     18 CA         28.4329   -0.0170   -4.9288 C.3       5 UNK         0.0660 
     19 N          27.1427   -0.7071   -4.8192 N.am      5 UNK        -0.4015 
     20 C          26.5281   -1.3240   -5.8438 C.2       4 UNK         0.4946 
     21 O          27.0220   -1.4394   -6.9638 O.2       4 UNK        -0.5353 
     22 CA         25.1006   -1.8545   -5.6170 C.3       4 UNK         0.0277 
     23 CB         25.1183   -3.3543   -5.2874 C.3       4 UNK        -0.1981 
     24 N          24.3629   -1.1091   -4.5934 N.am      4 UNK        -0.4209 
     25 C          24.0166    0.1822   -4.7269 C.2       3 UNK         0.4942 
     26 O          24.2294    0.8337   -5.7498 O.2       3 UNK        -0.5208 
     27 CA         23.3789    0.8964   -3.5206 C.3       3 UNK         0.0250 
     28 CB         21.8544    0.9786   -3.6946 C.3       3 UNK        -0.1990 
     29 N          23.6853    0.2963   -2.2188 N.am      3 UNK        -0.4232 
     30 C          24.9109    0.1060   -1.7101 C.2       2 UNK         0.4993 
     31 O          25.9501    0.4193   -2.2953 O.2       2 UNK        -0.5286 
     32 CA         25.0071   -0.6249   -0.3557 C.3       2 UNK         0.0209 
     33 CB         23.6495   -0.8261    0.3574 C.3       2 UNK        -0.1931 
     34 N          25.7030   -1.9122   -0.4913 N.am      2 UNK        -0.4546 
     35 C          25.4018   -2.8995   -1.3501 C.2       1 UNK         0.5154 
     36 O          24.4563   -2.8514   -2.1440 O.2       1 UNK        -0.5181 
     37 C          28.3244    1.2060   -5.8627 C.2       5 UNK         0.5014 
     38 O          29.1774    1.3869   -6.7338 O.2       5 UNK        -0.5248 
     39 N          27.2549    1.9973   -5.6886 N.am      6 UNK        -0.4434 
     40 CA         26.9376    3.1542   -6.5253 C.3       6 UNK         0.0363 
     41 CB         25.8281    3.9895   -5.8667 C.3       6 UNK        -0.1936 
     42 C          26.5488    2.7478   -7.9549 C.2       6 UNK         0.5081 
     43 O          27.0298    3.3657   -8.9038 O.2       6 UNK        -0.5248 
     44 N          25.7269    1.6962   -8.0912 N.am      7 UNK        -0.4718 
     45 CA         25.3053    1.1333   -9.3797 C.3       7 UNK         0.0273 
     46 CB         24.2388    0.0517   -9.1516 C.3       7 UNK        -0.1935 
     47 C          26.4751    0.5725  -10.2077 C.2       7 UNK         0.5018 
     48 O          26.5049    0.7709  -11.4224 O.2       7 UNK        -0.5186 
     49 N          27.4329   -0.0796   -9.5341 N.am      8 UNK        -0.4240 
     50 CA         28.6812   -0.5734  -10.1218 C.3       8 UNK         0.0235 
     51 CB         29.1827   -1.7613   -9.2882 C.3       8 UNK        -0.2000 
     52 C          29.7732    0.5084  -10.2576 C.2       8 UNK         0.4941 
     53 O          30.8606    0.1916  -10.7415 O.2       8 UNK        -0.5273 
     54 N          29.4782    1.7492   -9.8391 N.am      9 UNK        -0.4262 
     55 CA         30.3205    2.9473   -9.9133 C.3       9 UNK         0.0264 
     56 CB         30.5290    3.3722  -11.3831 C.3       9 UNK        -0.1955 
     57 C          31.6392    2.8376   -9.1221 C.2       9 UNK         0.5031 
     58 O          32.6649    3.3389   -9.5872 O.2       9 UNK        -0.5390 
     59 N          31.5762    2.2157   -7.9331 N.am      10 UNK        -0.4204 
     60 CA         32.6557    2.0488   -6.9515 C.3       10 UNK         0.0237 
     61 CB         32.9613    3.3947   -6.2618 C.3       10 UNK        -0.1985 
     62 C          33.9134    1.3807   -7.5423 C.2       10 UNK         0.4970 
     63 O          34.9569    2.0242   -7.6693 O.2       10 UNK        -0.4914 
     64 N          33.7749    0.0987   -7.9041 N.am      11 UNK        -0.4285 
     65 CA         34.8166   -0.7410   -8.5230 C.3       11 UNK         0.1007 
     66 C          36.1397   -0.9280   -7.7167 C.2       11 UNK         0.5703 
     67 N          36.1748   -0.6594   -6.4166 N.am      11 UNK        -0.7361 
     68 O          37.1542   -1.3195   -8.2892 O.2       11 UNK        -0.4986 
     69 C69        34.2336   -2.1011   -8.9999 C.3       12 UNK        -0.0947 
     70 S70        33.7348   -3.2153   -7.6368 S.3       12 UNK        -0.2240 
     71 C71        31.9551   -2.8744   -7.5143 C.3       12 UNK         0.0194 
     72 H72        24.7089   -7.2174   -3.2903 H         1 UNK         0.0906 
     73 H73        24.3405   -8.1041   -1.8097 H         1 UNK         0.0906 
     74 H74        23.1461   -7.0019   -2.5004 H         1 UNK         0.0906 
     75 H75        26.0807   -5.4889   -2.9300 H         1 UNK         0.3140 
     76 H76        26.5514   -4.3771   -0.3126 H         1 UNK         0.1085 
     77 H77        27.5565   -3.3868   -3.0403 H         1 UNK         0.0836 
     78 H78        28.1534   -2.8792   -1.4870 H         1 UNK         0.0836 
     79 H79        28.5865   -5.2414   -4.3738 H         1 UNK         0.0731 
     80 H80        30.0567   -6.0407   -3.8773 H         1 UNK         0.0731 
     81 H81        30.4884   -4.7756   -6.2035 H         1 UNK         0.1312 
     82 H82        32.3762   -0.9716   -5.6221 H         1 UNK         0.1406 
     83 H83        30.3175   -2.8211   -2.3797 H         1 UNK         0.1631 
     84 H84        32.7228   -0.3584   -3.0509 H         1 UNK         0.0717 
     85 H85        31.3951   -0.7693   -1.9930 H         1 UNK         0.0717 
     86 H86        28.9273   -0.4857   -2.8558 H         1 UNK         0.0934 
     87 H87        28.4146    1.1575   -3.0789 H         1 UNK         0.0934 
     88 H88        29.1225   -0.7201   -5.3999 H         1 UNK         0.0739 
     89 H89        26.6458   -0.5897   -3.9423 H         1 UNK         0.3093 
     90 H90        24.5557   -1.7355   -6.5543 H         1 UNK         0.0818 
     91 H91        25.5719   -3.9236   -6.0999 H         1 UNK         0.0819 
     92 H92        25.6920   -3.5642   -4.3880 H         1 UNK         0.0819 
     93 H93        24.1104   -3.7429   -5.1410 H         1 UNK         0.0819 
     94 H94        24.1807   -1.5893   -3.7164 H         1 UNK         0.3041 
     95 H95        23.7764    1.9133   -3.5082 H         1 UNK         0.0784 
     96 H96        21.5946    1.4477   -4.6450 H         1 UNK         0.0793 
     97 H97        21.3930   -0.0098   -3.6824 H         1 UNK         0.0793 
     98 H98        21.3952    1.5752   -2.9062 H         1 UNK         0.0793 
     99 H99        22.8976   -0.0356   -1.6812 H         1 UNK         0.3024 
    100 H100       25.6274    0.0082    0.2812 H         1 UNK         0.1171 
    101 H101       23.1374    0.1245    0.5133 H         1 UNK         0.0786 
    102 H102       22.9800   -1.4825   -0.2001 H         1 UNK         0.0786 
    103 H103       23.7923   -1.2711    1.3423 H         1 UNK         0.0786 
    104 H104       26.5174   -2.0226    0.0970 H         1 UNK         0.2977 
    105 H105       26.5822    1.7540   -4.9758 H         1 UNK         0.3127 
    106 H106       27.8343    3.7747   -6.5900 H         1 UNK         0.0770 
    107 H107       24.8992    3.4277   -5.7644 H         1 UNK         0.0814 
    108 H108       25.6062    4.8763   -6.4618 H         1 UNK         0.0814 
    109 H109       26.1244    4.3320   -4.8752 H         1 UNK         0.0814 
    110 H110       25.3283    1.2792   -7.2529 H         1 UNK         0.2983 
    111 H111       24.8517    1.9429   -9.9556 H         1 UNK         0.0947 
    112 H112       23.8258   -0.2913  -10.1011 H         1 UNK         0.0806 
    113 H113       23.4091    0.4266   -8.5518 H         1 UNK         0.0806 
    114 H114       24.6545   -0.8197   -8.6472 H         1 UNK         0.0806 
    115 H115       27.3005   -0.2624   -8.5426 H         1 UNK         0.3000 
    116 H116       28.4716   -0.9385  -11.1295 H         1 UNK         0.0850 
    117 H117       30.0754   -2.2016   -9.7333 H         1 UNK         0.0810 
    118 H118       28.4314   -2.5488   -9.2273 H         1 UNK         0.0810 
    119 H119       29.4265   -1.4563   -8.2698 H         1 UNK         0.0810 
    120 H120       28.5613    1.9036   -9.4365 H         1 UNK         0.3040 
    121 H121       29.7513    3.7398   -9.4251 H         1 UNK         0.0766 
    122 H122       31.1389    2.6520  -11.9293 H         1 UNK         0.0812 
    123 H123       31.0325    4.3378  -11.4447 H         1 UNK         0.0812 
    124 H124       29.5773    3.4715  -11.9054 H         1 UNK         0.0812 
    125 H125       30.6667    1.8586   -7.6347 H         1 UNK         0.3205 
    126 H126       32.2706    1.3755   -6.1854 H         1 UNK         0.0754 
    127 H127       33.7207    3.2731   -5.4884 H         1 UNK         0.0769 
    128 H128       32.0716    3.8007   -5.7802 H         1 UNK         0.0769 
    129 H129       33.3303    4.1394   -6.9680 H         1 UNK         0.0769 
    130 H130       32.8741   -0.3378   -7.7945 H         1 UNK         0.2981 
    131 H131       35.1151   -0.2018   -9.4240 H         1 UNK         0.0541 
    132 H132       37.0378   -0.7819   -5.9114 H         1 UNK         0.3459 
    133 H133       35.3507   -0.3358   -5.9388 H         1 UNK         0.3459 
    134 H134       34.9722   -2.6295   -9.6052 H         1 UNK         0.0612 
    135 H135       33.3849   -1.9350   -9.6657 H         1 UNK         0.0612 
    136 H136       31.7338   -1.9001   -7.9483 H         1 UNK         0.0624 
    137 H137       31.4090   -3.6112   -8.1051 H         1 UNK         0.0624 
@<TRIPOS>BOND
     1    1    2 1    
     2    1   72 1    
     3    1   73 1    
     4    1   74 1    
     5    2    3 2    
     6    2    4 am   BACKBONE|DICT|INTERRES
     7    4    5 1    
     8    4   75 1    
     9    5    6 1    
    10    5   35 1    
    11    5   76 1    
    12    6    7 1    
    13    6   77 1    
    14    6   78 1    
    15    7    8 1    
    16    8    9 1    
    17    8   79 1    
    18    8   80 1    
    19    9   10 ar   
    20    9   14 ar   
    21   10   11 ar   
    22   10   81 1    
    23   11   12 ar   
    24   11   71 1    
    25   12   13 ar   
    26   12   82 1    
    27   13   14 ar   
    28   13   15 1    
    29   14   83 1    
    30   15   16 1    
    31   15   84 1    
    32   15   85 1    
    33   16   17 1    
    34   17   18 1    
    35   17   86 1    
    36   17   87 1    
    37   18   19 1    
    38   18   37 1    
    39   18   88 1    
    40   19   20 am   BACKBONE|DICT|INTERRES
    41   19   89 1    
    42   20   21 2    
    43   20   22 1    
    44   22   23 1    
    45   22   24 1    
    46   22   90 1    
    47   23   91 1    
    48   23   92 1    
    49   23   93 1    
    50   24   25 am   BACKBONE|DICT|INTERRES
    51   24   94 1    
    52   25   26 2    
    53   25   27 1    
    54   27   28 1    
    55   27   29 1    
    56   27   95 1    
    57   28   96 1    
    58   28   97 1    
    59   28   98 1    
    60   29   30 am   BACKBONE|DICT|INTERRES
    61   29   99 1    
    62   30   31 2    
    63   30   32 1    
    64   32   33 1    
    65   32   34 1    
    66   32  100 1    
    67   33  101 1    
    68   33  102 1    
    69   33  103 1    
    70   34   35 am   BACKBONE|DICT|INTERRES
    71   34  104 1    
    72   35   36 2    
    73   37   38 2    
    74   37   39 am   BACKBONE|DICT|INTERRES
    75   39   40 1    
    76   39  105 1    
    77   40   41 1    
    78   40   42 1    
    79   40  106 1    
    80   41  107 1    
    81   41  108 1    
    82   41  109 1    
    83   42   43 2    
    84   42   44 am   BACKBONE|DICT|INTERRES
    85   44   45 1    
    86   44  110 1    
    87   45   46 1    
    88   45   47 1    
    89   45  111 1    
    90   46  112 1    
    91   46  113 1    
    92   46  114 1    
    93   47   48 2    
    94   47   49 am   BACKBONE|DICT|INTERRES
    95   49   50 1    
    96   49  115 1    
    97   50   51 1    
    98   50   52 1    
    99   50  116 1    
   100   51  117 1    
   101   51  118 1    
   102   51  119 1    
   103   52   53 2    
   104   52   54 am   BACKBONE|DICT|INTERRES
   105   54   55 1    
   106   54  120 1    
   107   55   56 1    
   108   55   57 1    
   109   55  121 1    
   110   56  122 1    
   111   56  123 1    
   112   56  124 1    
   113   57   58 2    
   114   57   59 am   BACKBONE|DICT|INTERRES
   115   59   60 1    
   116   59  125 1    
   117   60   61 1    
   118   60   62 1    
   119   60  126 1    
   120   61  127 1    
   121   61  128 1    
   122   61  129 1    
   123   62   63 2    
   124   62   64 am   BACKBONE|DICT|INTERRES
   125   64   65 1    
   126   64  130 1    
   127   65   66 1    
   128   65   69 1    
   129   65  131 1    
   130   66   67 am   BACKBONE|DICT|INTERRES
   131   66   68 2    
   132   67  132 1    
   133   67  133 1    
   134   69   70 1    
   135   69  134 1    
   136   69  135 1    
   137   70   71 1    
   138   71  136 1    
   139   71  137 1    
@<TRIPOS>SUBSTRUCTURE
     1 UNK         1 GROUP             0       ****    0 ROOT    
