@<TRIPOS>MOLECULE
3R137
137   139    1
SMALL
USER_CHARGES


@<TRIPOS>ATOM
      1 CA         25.2534   -4.7462    1.6249 C.3       0 UNK        -0.2020 
      2 C          25.7373   -3.7360    0.5964 C.2       0 UNK         0.4855 
      3 O          25.0927   -3.5593   -0.4365 O.2       0 UNK        -0.5197 
      4 N          26.8505   -3.0452    0.8842 N.am      1 UNK        -0.4892 
      5 CA         27.5609   -2.0888    0.0099 C.3       1 UNK         0.0835 
      6 C6         28.0666   -2.7299   -1.3154 C.3       12 UNK        -0.0855 
      7 S7         29.0770   -4.2272   -1.0395 S.3       12 UNK        -0.2931 
      8 C8         30.6873   -3.7407   -1.7441 C.3       12 UNK         0.0378 
      9 C9         30.6581   -3.5503   -3.2586 C.ar      12 UNK        -0.0802 
     10 C10        31.2918   -2.4429   -3.8302 C.ar      12 UNK        -0.0944 
     11 C11        31.3109   -2.2702   -5.2168 C.ar      12 UNK        -0.0787 
     12 C12        30.6871   -3.2163   -6.0355 C.ar      12 UNK        -0.0862 
     13 C13        30.0345   -4.3224   -5.4813 C.ar      12 UNK        -0.0733 
     14 C14        30.0364   -4.4874   -4.0926 C.ar      12 UNK        -0.0832 
     15 C15        29.3590   -5.3691   -6.3653 C.3       12 UNK         0.0240 
     16 S16        28.3496   -4.6781   -7.7221 S.3       12 UNK        -0.2522 
     17 C17        27.0298   -3.7897   -6.8253 C.3       12 UNK        -0.0967 
     18 CA         26.7232   -2.4060   -7.4547 C.3       5 UNK         0.0660 
     19 N          25.3854   -1.9269   -7.0870 N.am      5 UNK        -0.4015 
     20 C          24.8362   -0.7629   -7.4686 C.2       4 UNK         0.4946 
     21 O          25.3584    0.0083   -8.2742 O.2       4 UNK        -0.5353 
     22 CA         23.5089   -0.3478   -6.8082 C.3       4 UNK         0.0277 
     23 CB         22.3400   -0.5819   -7.7785 C.3       4 UNK        -0.1981 
     24 N          23.2043   -0.9869   -5.5199 N.am      4 UNK        -0.4209 
     25 C          23.9787   -0.9882   -4.4241 C.2       3 UNK         0.4942 
     26 O          25.1297   -0.5447   -4.3899 O.2       3 UNK        -0.5208 
     27 CA         23.3724   -1.6716   -3.1862 C.3       3 UNK         0.0250 
     28 CB         23.5590   -3.1950   -3.2825 C.3       3 UNK        -0.1990 
     29 N          23.9542   -1.2012   -1.9267 N.am      3 UNK        -0.4232 
     30 C          23.8569    0.0490   -1.4441 C.2       2 UNK         0.4993 
     31 O          23.2042    0.9403   -1.9898 O.2       2 UNK        -0.5286 
     32 CA         24.5780    0.3661   -0.1173 C.3       2 UNK         0.0209 
     33 CB         23.5615    0.5219    1.0265 C.3       2 UNK        -0.1931 
     34 N          25.5531   -0.6603    0.2548 N.am      2 UNK        -0.4546 
     35 C          26.7754   -0.7854   -0.2786 C.2       1 UNK         0.5154 
     36 O          27.2874    0.0840   -0.9832 O.2       1 UNK        -0.5181 
     37 C          27.8309   -1.3769   -7.1362 C.2       5 UNK         0.5014 
     38 O          28.7550   -1.2228   -7.9374 O.2       5 UNK        -0.5248 
     39 N          27.6834   -0.6518   -6.0140 N.am      6 UNK        -0.4434 
     40 CA         28.5901    0.4134   -5.5849 C.3       6 UNK         0.0363 
     41 CB         28.1449    0.9569   -4.2209 C.3       6 UNK        -0.1936 
     42 C          28.7237    1.5484   -6.6114 C.2       6 UNK         0.5081 
     43 O          29.8393    1.9930   -6.8838 O.2       6 UNK        -0.5248 
     44 N          27.5864    1.9669   -7.1803 N.am      7 UNK        -0.4718 
     45 CA         27.5125    2.9859   -8.2247 C.3       7 UNK         0.0273 
     46 CB         26.1057    3.6058   -8.2329 C.3       7 UNK        -0.1935 
     47 C          27.8626    2.4203   -9.6086 C.2       7 UNK         0.5018 
     48 O          28.5475    3.0977  -10.3746 O.2       7 UNK        -0.5186 
     49 N          27.3819    1.2041   -9.9073 N.am      8 UNK        -0.4240 
     50 CA         27.5525    0.5377  -11.1999 C.3       8 UNK         0.0235 
     51 CB         26.6454   -0.7004  -11.2764 C.3       8 UNK        -0.2000 
     52 C          29.0104    0.1649  -11.5078 C.2       8 UNK         0.4941 
     53 O          29.4719    0.4332  -12.6181 O.2       8 UNK        -0.5273 
     54 N          29.7096   -0.4396  -10.5358 N.am      9 UNK        -0.4262 
     55 CA         31.1211   -0.8093  -10.6765 C.3       9 UNK         0.0264 
     56 CB         31.4473   -1.9828   -9.7433 C.3       9 UNK        -0.1955 
     57 C          32.0688    0.3730  -10.4141 C.2       9 UNK         0.5031 
     58 O          33.1716    0.3745  -10.9626 O.2       9 UNK        -0.5390 
     59 N          31.6233    1.3472   -9.6020 N.am      10 UNK        -0.4204 
     60 CA         32.3156    2.5887   -9.2333 C.3       10 UNK         0.0237 
     61 CB         32.3994    3.5386  -10.4472 C.3       10 UNK        -0.1985 
     62 C          33.6845    2.3268   -8.5763 C.2       10 UNK         0.4970 
     63 O          34.7154    2.7577   -9.0975 O.2       10 UNK        -0.4914 
     64 N          33.6643    1.6004   -7.4507 N.am      11 UNK        -0.4285 
     65 CA         34.8641    1.1891   -6.6975 C.3       11 UNK         0.1007 
     66 C          35.6732    2.3536   -6.0518 C.2       11 UNK         0.5703 
     67 N          35.1073    3.5427   -5.8793 N.am      11 UNK        -0.7361 
     68 O          36.8372    2.1717   -5.7027 O.2       11 UNK        -0.4986 
     69 C69        34.5489    0.1068   -5.6301 C.3       12 UNK        -0.0947 
     70 S70        33.7045   -1.3709   -6.2932 S.3       12 UNK        -0.2240 
     71 C71        31.9789   -1.0440   -5.8209 C.3       12 UNK         0.0194 
     72 H72        25.9013   -4.7808    2.5005 H         1 UNK         0.0906 
     73 H73        24.2468   -4.4924    1.9560 H         1 UNK         0.0906 
     74 H74        25.2260   -5.7422    1.1839 H         1 UNK         0.0906 
     75 H75        27.3123   -3.2246    1.7658 H         1 UNK         0.3140 
     76 H76        28.4401   -1.7709    0.5727 H         1 UNK         0.1085 
     77 H77        27.2274   -3.0024   -1.9580 H         1 UNK         0.0836 
     78 H78        28.6523   -2.0086   -1.8887 H         1 UNK         0.0836 
     79 H79        31.0273   -2.8326   -1.2433 H         1 UNK         0.0731 
     80 H80        31.4189   -4.5144   -1.5079 H         1 UNK         0.0731 
     81 H81        31.7784   -1.7144   -3.1959 H         1 UNK         0.1312 
     82 H82        30.6956   -3.0884   -7.1074 H         1 UNK         0.1406 
     83 H83        29.5547   -5.3514   -3.6549 H         1 UNK         0.1631 
     84 H84        30.1334   -6.0025   -6.7996 H         1 UNK         0.0717 
     85 H85        28.7245   -6.0262   -5.7684 H         1 UNK         0.0717 
     86 H86        26.1439   -4.4255   -6.8659 H         1 UNK         0.0934 
     87 H87        27.2800   -3.6948   -5.7665 H         1 UNK         0.0934 
     88 H88        26.7020   -2.5283   -8.5382 H         1 UNK         0.0739 
     89 H89        24.8770   -2.4844   -6.4177 H         1 UNK         0.3093 
     90 H90        23.5814    0.7249   -6.6178 H         1 UNK         0.0818 
     91 H91        21.4083   -0.1737   -7.3863 H         1 UNK         0.0819 
     92 H92        22.5237   -0.0945   -8.7374 H         1 UNK         0.0819 
     93 H93        22.1864   -1.6433   -7.9774 H         1 UNK         0.0819 
     94 H94        22.2882   -1.4070   -5.4481 H         1 UNK         0.3041 
     95 H95        22.3038   -1.4485   -3.1583 H         1 UNK         0.0784 
     96 H96        23.1075   -3.5965   -4.1905 H         1 UNK         0.0793 
     97 H97        24.6149   -3.4703   -3.2912 H         1 UNK         0.0793 
     98 H98        23.0909   -3.7045   -2.4399 H         1 UNK         0.0793 
     99 H99        24.4919   -1.8851   -1.4035 H         1 UNK         0.3024 
    100 H100       25.0977    1.3179   -0.2507 H         1 UNK         0.1171 
    101 H101       24.0531    0.8000    1.9591 H         1 UNK         0.0786 
    102 H102       22.8351    1.3037    0.7998 H         1 UNK         0.0786 
    103 H103       23.0048   -0.3997    1.2008 H         1 UNK         0.0786 
    104 H104       25.2165   -1.4259    0.8212 H         1 UNK         0.2977 
    105 H105       26.8582   -0.7963   -5.4386 H         1 UNK         0.3127 
    106 H106       29.5710   -0.0326   -5.4531 H         1 UNK         0.0770 
    107 H107       27.1434    1.3871   -4.2598 H         1 UNK         0.0814 
    108 H108       28.8234    1.7340   -3.8669 H         1 UNK         0.0814 
    109 H109       28.1391    0.1663   -3.4714 H         1 UNK         0.0814 
    110 H110       26.7257    1.4936   -6.9420 H         1 UNK         0.2983 
    111 H111       28.2314    3.7764   -7.9961 H         1 UNK         0.0947 
    112 H112       26.0263    4.3812   -8.9961 H         1 UNK         0.0806 
    113 H113       25.8718    4.0702   -7.2748 H         1 UNK         0.0806 
    114 H114       25.3354    2.8621   -8.4421 H         1 UNK         0.0806 
    115 H115       26.7817    0.7383   -9.2293 H         1 UNK         0.3000 
    116 H116       27.2242    1.2386  -11.9706 H         1 UNK         0.0850 
    117 H117       26.7068   -1.1679  -12.2600 H         1 UNK         0.0810 
    118 H118       25.6007   -0.4402  -11.1046 H         1 UNK         0.0810 
    119 H119       26.9292   -1.4522  -10.5414 H         1 UNK         0.0810 
    120 H120       29.2626   -0.6531   -9.6447 H         1 UNK         0.3040 
    121 H121       31.2941   -1.1486  -11.7003 H         1 UNK         0.0766 
    122 H122       30.7773   -2.8268   -9.9087 H         1 UNK         0.0812 
    123 H123       31.3650   -1.6871   -8.7013 H         1 UNK         0.0812 
    124 H124       32.4673   -2.3359   -9.9004 H         1 UNK         0.0812 
    125 H125       30.7077    1.2284   -9.1899 H         1 UNK         0.3205 
    126 H126       31.6980    3.0803   -8.4805 H         1 UNK         0.0754 
    127 H127       32.8399    4.4955  -10.1647 H         1 UNK         0.0769 
    128 H128       31.4091    3.7450  -10.8542 H         1 UNK         0.0769 
    129 H129       33.0102    3.1223  -11.2490 H         1 UNK         0.0769 
    130 H130       32.7767    1.2893   -7.0864 H         1 UNK         0.2981 
    131 H131       35.5374    0.7323   -7.4255 H         1 UNK         0.0541 
    132 H132       34.1539    3.7023   -6.1613 H         1 UNK         0.3459 
    133 H133       35.6431    4.2881   -5.4634 H         1 UNK         0.3459 
    134 H134       33.9716    0.5342   -4.8090 H         1 UNK         0.0612 
    135 H135       35.4776   -0.2457   -5.1773 H         1 UNK         0.0612 
    136 H136       31.4287   -0.7073   -6.6990 H         1 UNK         0.0624 
    137 H137       31.9243   -0.2205   -5.1087 H         1 UNK         0.0624 
@<TRIPOS>BOND
     1    1    2 1    
     2    1   72 1    
     3    1   73 1    
     4    1   74 1    
     5    2    3 2    
     6    2    4 am   BACKBONE|DICT|INTERRES
     7    4    5 1    
     8    4   75 1    
     9    5    6 1    
    10    5   35 1    
    11    5   76 1    
    12    6    7 1    
    13    6   77 1    
    14    6   78 1    
    15    7    8 1    
    16    8    9 1    
    17    8   79 1    
    18    8   80 1    
    19    9   10 ar   
    20    9   14 ar   
    21   10   11 ar   
    22   10   81 1    
    23   11   12 ar   
    24   11   71 1    
    25   12   13 ar   
    26   12   82 1    
    27   13   14 ar   
    28   13   15 1    
    29   14   83 1    
    30   15   16 1    
    31   15   84 1    
    32   15   85 1    
    33   16   17 1    
    34   17   18 1    
    35   17   86 1    
    36   17   87 1    
    37   18   19 1    
    38   18   37 1    
    39   18   88 1    
    40   19   20 am   BACKBONE|DICT|INTERRES
    41   19   89 1    
    42   20   21 2    
    43   20   22 1    
    44   22   23 1    
    45   22   24 1    
    46   22   90 1    
    47   23   91 1    
    48   23   92 1    
    49   23   93 1    
    50   24   25 am   BACKBONE|DICT|INTERRES
    51   24   94 1    
    52   25   26 2    
    53   25   27 1    
    54   27   28 1    
    55   27   29 1    
    56   27   95 1    
    57   28   96 1    
    58   28   97 1    
    59   28   98 1    
    60   29   30 am   BACKBONE|DICT|INTERRES
    61   29   99 1    
    62   30   31 2    
    63   30   32 1    
    64   32   33 1    
    65   32   34 1    
    66   32  100 1    
    67   33  101 1    
    68   33  102 1    
    69   33  103 1    
    70   34   35 am   BACKBONE|DICT|INTERRES
    71   34  104 1    
    72   35   36 2    
    73   37   38 2    
    74   37   39 am   BACKBONE|DICT|INTERRES
    75   39   40 1    
    76   39  105 1    
    77   40   41 1    
    78   40   42 1    
    79   40  106 1    
    80   41  107 1    
    81   41  108 1    
    82   41  109 1    
    83   42   43 2    
    84   42   44 am   BACKBONE|DICT|INTERRES
    85   44   45 1    
    86   44  110 1    
    87   45   46 1    
    88   45   47 1    
    89   45  111 1    
    90   46  112 1    
    91   46  113 1    
    92   46  114 1    
    93   47   48 2    
    94   47   49 am   BACKBONE|DICT|INTERRES
    95   49   50 1    
    96   49  115 1    
    97   50   51 1    
    98   50   52 1    
    99   50  116 1    
   100   51  117 1    
   101   51  118 1    
   102   51  119 1    
   103   52   53 2    
   104   52   54 am   BACKBONE|DICT|INTERRES
   105   54   55 1    
   106   54  120 1    
   107   55   56 1    
   108   55   57 1    
   109   55  121 1    
   110   56  122 1    
   111   56  123 1    
   112   56  124 1    
   113   57   58 2    
   114   57   59 am   BACKBONE|DICT|INTERRES
   115   59   60 1    
   116   59  125 1    
   117   60   61 1    
   118   60   62 1    
   119   60  126 1    
   120   61  127 1    
   121   61  128 1    
   122   61  129 1    
   123   62   63 2    
   124   62   64 am   BACKBONE|DICT|INTERRES
   125   64   65 1    
   126   64  130 1    
   127   65   66 1    
   128   65   69 1    
   129   65  131 1    
   130   66   67 am   BACKBONE|DICT|INTERRES
   131   66   68 2    
   132   67  132 1    
   133   67  133 1    
   134   69   70 1    
   135   69  134 1    
   136   69  135 1    
   137   70   71 1    
   138   71  136 1    
   139   71  137 1    
@<TRIPOS>SUBSTRUCTURE
     1 UNK         1 GROUP             0       ****    0 ROOT    
