@<TRIPOS>MOLECULE
3R137
137   139    1
SMALL
USER_CHARGES


@<TRIPOS>ATOM
      1 CA         27.1276   -4.9458    1.2617 C.3       0 UNK        -0.2020 
      2 C          26.9616   -3.7026    0.4007 C.2       0 UNK         0.4855 
      3 O          26.7391   -3.8258   -0.8039 O.2       0 UNK        -0.5197 
      4 N          27.0841   -2.5149    1.0126 N.am      1 UNK        -0.4892 
      5 CA         26.9261   -1.1860    0.3982 C.3       1 UNK         0.0835 
      6 C6         27.9668   -0.9015   -0.7272 C.3       12 UNK        -0.0855 
      7 S7         29.6876   -0.9035   -0.1258 S.3       12 UNK        -0.2931 
      8 C8         30.3275   -2.4863   -0.7653 C.3       12 UNK         0.0378 
      9 C9         30.4750   -2.5177   -2.2830 C.ar      12 UNK        -0.0802 
     10 C10        31.3177   -1.6089   -2.9309 C.ar      12 UNK        -0.0944 
     11 C11        31.5192   -1.6871   -4.3122 C.ar      12 UNK        -0.0787 
     12 C12        30.8796   -2.6887   -5.0479 C.ar      12 UNK        -0.0862 
     13 C13        30.0423   -3.6096   -4.4121 C.ar      12 UNK        -0.0733 
     14 C14        29.8277   -3.5063   -3.0329 C.ar      12 UNK        -0.0832 
     15 C15        29.4300   -4.7624   -5.1955 C.3       12 UNK         0.0240 
     16 S16        27.8573   -4.3119   -5.9865 S.3       12 UNK        -0.2522 
     17 C17        28.3889   -3.7357   -7.6419 C.3       12 UNK        -0.0967 
     18 CA         27.7255   -2.4069   -8.0847 C.3       5 UNK         0.0660 
     19 N          26.2746   -2.4337   -7.8798 N.am      5 UNK        -0.4015 
     20 C          25.4025   -1.5224   -8.3261 C.2       4 UNK         0.4946 
     21 O          25.7139   -0.5629   -9.0278 O.2       4 UNK        -0.5353 
     22 CA         23.9410   -1.6782   -7.8687 C.3       4 UNK         0.0277 
     23 CB         23.1701   -2.5884   -8.8377 C.3       4 UNK        -0.1981 
     24 N          23.7885   -2.1776   -6.4954 N.am      4 UNK        -0.4209 
     25 C          24.3201   -1.6062   -5.4055 C.2       3 UNK         0.4942 
     26 O          25.0531   -0.6141   -5.4421 O.2       3 UNK        -0.5208 
     27 CA         24.0292   -2.2960   -4.0633 C.3       3 UNK         0.0250 
     28 CB         24.9275   -3.5305   -3.8849 C.3       3 UNK        -0.1990 
     29 N          24.2727   -1.3886   -2.9449 N.am      3 UNK        -0.4232 
     30 C          23.4645   -0.3934   -2.5586 C.2       2 UNK         0.4993 
     31 O          22.3483   -0.1992   -3.0438 O.2       2 UNK        -0.5286 
     32 CA         23.9965    0.5679   -1.4731 C.3       2 UNK         0.0209 
     33 CB         22.9228    0.9121   -0.4179 C.3       2 UNK        -0.1931 
     34 N          25.2575    0.1391   -0.8411 N.am      2 UNK        -0.4546 
     35 C          25.4634   -0.9250   -0.0471 C.2       1 UNK         0.5154 
     36 O          24.5554   -1.6677    0.3353 O.2       1 UNK        -0.5181 
     37 C          28.4056   -1.1835   -7.4363 C.2       5 UNK         0.5014 
     38 O          29.3193   -0.6122   -8.0347 O.2       5 UNK        -0.5248 
     39 N          27.9435   -0.7861   -6.2442 N.am      6 UNK        -0.4434 
     40 CA         28.4280    0.3970   -5.5371 C.3       6 UNK         0.0363 
     41 CB         28.0900    0.2854   -4.0449 C.3       6 UNK        -0.1936 
     42 C          27.8549    1.6837   -6.1453 C.2       6 UNK         0.5081 
     43 O          28.5915    2.6582   -6.2877 O.2       6 UNK        -0.5248 
     44 N          26.5726    1.6528   -6.5381 N.am      7 UNK        -0.4718 
     45 CA         25.8831    2.7497   -7.2262 C.3       7 UNK         0.0273 
     46 CB         24.3852    2.4273   -7.3399 C.3       7 UNK        -0.1935 
     47 C          26.4846    3.0625   -8.6089 C.2       7 UNK         0.5018 
     48 O          26.6464    4.2353   -8.9474 O.2       7 UNK        -0.5186 
     49 N          26.8419    2.0127   -9.3624 N.am      8 UNK        -0.4240 
     50 CA         27.5602    2.0966  -10.6381 C.3       8 UNK         0.0235 
     51 CB         27.3887    0.7695  -11.3964 C.3       8 UNK        -0.2000 
     52 C          29.0577    2.4253  -10.4844 C.2       8 UNK         0.4941 
     53 O          29.7006    2.7293  -11.4900 O.2       8 UNK        -0.5273 
     54 N          29.5837    2.3452   -9.2523 N.am      9 UNK        -0.4262 
     55 CA         30.9804    2.5459   -8.8571 C.3       9 UNK         0.0264 
     56 CB         31.4073    4.0151   -9.0605 C.3       9 UNK        -0.1955 
     57 C          31.9327    1.5381   -9.5262 C.2       9 UNK         0.5031 
     58 O          32.9802    1.9274  -10.0480 O.2       9 UNK        -0.5390 
     59 N          31.5698    0.2469   -9.4694 N.am      10 UNK        -0.4204 
     60 CA         32.3375   -0.8784  -10.0228 C.3       10 UNK         0.0237 
     61 CB         31.5259   -2.1736   -9.8559 C.3       10 UNK        -0.1985 
     62 C          33.7430   -1.0462   -9.4125 C.2       10 UNK         0.4970 
     63 O          34.6132   -1.6384  -10.0516 O.2       10 UNK        -0.4914 
     64 N          33.9378   -0.5068   -8.2038 N.am      11 UNK        -0.4285 
     65 CA         35.2291   -0.3873   -7.5155 C.3       11 UNK         0.1007 
     66 C          36.1977    0.6565   -8.1484 C.2       11 UNK         0.5703 
     67 N          35.7593    1.5246   -9.0544 N.am      11 UNK        -0.7361 
     68 O          37.3794    0.6727   -7.8122 O.2       11 UNK        -0.4986 
     69 C69        35.0306   -0.1078   -6.0024 C.3       12 UNK        -0.0947 
     70 S70        34.1223   -1.4418   -5.1543 S.3       12 UNK        -0.2240 
     71 C71        32.4603   -0.7170   -5.0054 C.3       12 UNK         0.0194 
     72 H72        27.9468   -5.5566    0.8832 H         1 UNK         0.0906 
     73 H73        27.3413   -4.6986    2.3014 H         1 UNK         0.0906 
     74 H74        26.2166   -5.5431    1.2352 H         1 UNK         0.0906 
     75 H75        27.2471   -2.4993    2.0098 H         1 UNK         0.3140 
     76 H76        27.1058   -0.4674    1.1998 H         1 UNK         0.1085 
     77 H77        27.8568   -1.6071   -1.5514 H         1 UNK         0.0836 
     78 H78        27.8203    0.0886   -1.1585 H         1 UNK         0.0836 
     79 H79        31.3079   -2.6644   -0.3215 H         1 UNK         0.0731 
     80 H80        29.6903   -3.2991   -0.4176 H         1 UNK         0.0731 
     81 H81        31.8319   -0.8523   -2.3540 H         1 UNK         0.1312 
     82 H82        31.0595   -2.7665   -6.1108 H         1 UNK         0.1406 
     83 H83        29.1849   -4.2216   -2.5367 H         1 UNK         0.1631 
     84 H84        29.2437   -5.6023   -4.5245 H         1 UNK         0.0717 
     85 H85        30.1349   -5.1332   -5.9410 H         1 UNK         0.0717 
     86 H86        29.4763   -3.6628   -7.6927 H         1 UNK         0.0934 
     87 H87        28.1242   -4.5192   -8.3537 H         1 UNK         0.0934 
     88 H88        27.8872   -2.3047   -9.1601 H         1 UNK         0.0739 
     89 H89        25.9324   -3.1833   -7.2964 H         1 UNK         0.3093 
     90 H90        23.4843   -0.6878   -7.9013 H         1 UNK         0.0818 
     91 H91        22.1078   -2.6192   -8.5945 H         1 UNK         0.0819 
     92 H92        23.2538   -2.2252   -9.8633 H         1 UNK         0.0819 
     93 H93        23.5490   -3.6111   -8.8226 H         1 UNK         0.0819 
     94 H94        23.2093   -2.9968   -6.3770 H         1 UNK         0.3041 
     95 H95        22.9826   -2.6075   -4.0470 H         1 UNK         0.0784 
     96 H96        24.7905   -4.2471   -4.6956 H         1 UNK         0.0793 
     97 H97        25.9841   -3.2600   -3.8601 H         1 UNK         0.0793 
     98 H98        24.7014   -4.0513   -2.9539 H         1 UNK         0.0793 
     99 H99        25.1720   -1.4665   -2.4963 H         1 UNK         0.3024 
    100 H100       24.2319    1.4919   -2.0043 H         1 UNK         0.1171 
    101 H101       22.0595    1.3912   -0.8814 H         1 UNK         0.0786 
    102 H102       23.3090    1.6022    0.3321 H         1 UNK         0.0786 
    103 H103       22.5574    0.0239    0.0978 H         1 UNK         0.0786 
    104 H104       26.0585    0.7098   -1.0742 H         1 UNK         0.2977 
    105 H105       27.1447   -1.2597   -5.8436 H         1 UNK         0.3127 
    106 H106       29.5157    0.4360   -5.6303 H         1 UNK         0.0770 
    107 H107       27.0148    0.2552   -3.8680 H         1 UNK         0.0814 
    108 H108       28.4916    1.1352   -3.4918 H         1 UNK         0.0814 
    109 H109       28.5296   -0.6159   -3.6195 H         1 UNK         0.0814 
    110 H110       26.0284    0.8176   -6.3364 H         1 UNK         0.2983 
    111 H111       25.9932    3.6441   -6.6091 H         1 UNK         0.0947 
    112 H112       23.8382    3.2688   -7.7669 H         1 UNK         0.0806 
    113 H113       23.9475    2.2152   -6.3641 H         1 UNK         0.0806 
    114 H114       24.2070    1.5654   -7.9822 H         1 UNK         0.0806 
    115 H115       26.5853    1.0774   -9.0503 H         1 UNK         0.3000 
    116 H116       27.1108    2.8936  -11.2342 H         1 UNK         0.0850 
    117 H117       27.8732    0.8084  -12.3730 H         1 UNK         0.0810 
    118 H118       26.3361    0.5427  -11.5664 H         1 UNK         0.0810 
    119 H119       27.8266   -0.0651  -10.8469 H         1 UNK         0.0810 
    120 H120       28.9595    2.0922   -8.4971 H         1 UNK         0.3040 
    121 H121       31.0235    2.3391   -7.7866 H         1 UNK         0.0766 
    122 H122       32.4052    4.1906   -8.6568 H         1 UNK         0.0812 
    123 H123       30.7272    4.6982   -8.5515 H         1 UNK         0.0812 
    124 H124       31.4321    4.2892  -10.1156 H         1 UNK         0.0812 
    125 H125       30.6967    0.0062   -8.9967 H         1 UNK         0.3205 
    126 H126       32.4687   -0.6888  -11.0900 H         1 UNK         0.0754 
    127 H127       32.0406   -3.0203  -10.3122 H         1 UNK         0.0769 
    128 H128       30.5478   -2.0944  -10.3312 H         1 UNK         0.0769 
    129 H129       31.3697   -2.4146   -8.8039 H         1 UNK         0.0769 
    130 H130       33.1605   -0.0403   -7.7658 H         1 UNK         0.2981 
    131 H131       35.7331   -1.3512   -7.6090 H         1 UNK         0.0541 
    132 H132       34.7893    1.5375   -9.3533 H         1 UNK         0.3459 
    133 H133       36.4086    2.1853   -9.4500 H         1 UNK         0.3459 
    134 H134       34.5196    0.8442   -5.8477 H         1 UNK         0.0612 
    135 H135       35.9967   -0.0164   -5.5025 H         1 UNK         0.0612 
    136 H136       32.5181    0.2193   -4.4480 H         1 UNK         0.0624 
    137 H137       32.0719   -0.4699   -5.9942 H         1 UNK         0.0624 
@<TRIPOS>BOND
     1    1    2 1    
     2    1   72 1    
     3    1   73 1    
     4    1   74 1    
     5    2    3 2    
     6    2    4 am   BACKBONE|DICT|INTERRES
     7    4    5 1    
     8    4   75 1    
     9    5    6 1    
    10    5   35 1    
    11    5   76 1    
    12    6    7 1    
    13    6   77 1    
    14    6   78 1    
    15    7    8 1    
    16    8    9 1    
    17    8   79 1    
    18    8   80 1    
    19    9   10 ar   
    20    9   14 ar   
    21   10   11 ar   
    22   10   81 1    
    23   11   12 ar   
    24   11   71 1    
    25   12   13 ar   
    26   12   82 1    
    27   13   14 ar   
    28   13   15 1    
    29   14   83 1    
    30   15   16 1    
    31   15   84 1    
    32   15   85 1    
    33   16   17 1    
    34   17   18 1    
    35   17   86 1    
    36   17   87 1    
    37   18   19 1    
    38   18   37 1    
    39   18   88 1    
    40   19   20 am   BACKBONE|DICT|INTERRES
    41   19   89 1    
    42   20   21 2    
    43   20   22 1    
    44   22   23 1    
    45   22   24 1    
    46   22   90 1    
    47   23   91 1    
    48   23   92 1    
    49   23   93 1    
    50   24   25 am   BACKBONE|DICT|INTERRES
    51   24   94 1    
    52   25   26 2    
    53   25   27 1    
    54   27   28 1    
    55   27   29 1    
    56   27   95 1    
    57   28   96 1    
    58   28   97 1    
    59   28   98 1    
    60   29   30 am   BACKBONE|DICT|INTERRES
    61   29   99 1    
    62   30   31 2    
    63   30   32 1    
    64   32   33 1    
    65   32   34 1    
    66   32  100 1    
    67   33  101 1    
    68   33  102 1    
    69   33  103 1    
    70   34   35 am   BACKBONE|DICT|INTERRES
    71   34  104 1    
    72   35   36 2    
    73   37   38 2    
    74   37   39 am   BACKBONE|DICT|INTERRES
    75   39   40 1    
    76   39  105 1    
    77   40   41 1    
    78   40   42 1    
    79   40  106 1    
    80   41  107 1    
    81   41  108 1    
    82   41  109 1    
    83   42   43 2    
    84   42   44 am   BACKBONE|DICT|INTERRES
    85   44   45 1    
    86   44  110 1    
    87   45   46 1    
    88   45   47 1    
    89   45  111 1    
    90   46  112 1    
    91   46  113 1    
    92   46  114 1    
    93   47   48 2    
    94   47   49 am   BACKBONE|DICT|INTERRES
    95   49   50 1    
    96   49  115 1    
    97   50   51 1    
    98   50   52 1    
    99   50  116 1    
   100   51  117 1    
   101   51  118 1    
   102   51  119 1    
   103   52   53 2    
   104   52   54 am   BACKBONE|DICT|INTERRES
   105   54   55 1    
   106   54  120 1    
   107   55   56 1    
   108   55   57 1    
   109   55  121 1    
   110   56  122 1    
   111   56  123 1    
   112   56  124 1    
   113   57   58 2    
   114   57   59 am   BACKBONE|DICT|INTERRES
   115   59   60 1    
   116   59  125 1    
   117   60   61 1    
   118   60   62 1    
   119   60  126 1    
   120   61  127 1    
   121   61  128 1    
   122   61  129 1    
   123   62   63 2    
   124   62   64 am   BACKBONE|DICT|INTERRES
   125   64   65 1    
   126   64  130 1    
   127   65   66 1    
   128   65   69 1    
   129   65  131 1    
   130   66   67 am   BACKBONE|DICT|INTERRES
   131   66   68 2    
   132   67  132 1    
   133   67  133 1    
   134   69   70 1    
   135   69  134 1    
   136   69  135 1    
   137   70   71 1    
   138   71  136 1    
   139   71  137 1    
@<TRIPOS>SUBSTRUCTURE
     1 UNK         1 GROUP             0       ****    0 ROOT    
