@<TRIPOS>MOLECULE
3R137
137   139    1
SMALL
USER_CHARGES


@<TRIPOS>ATOM
      1 CA         23.1096   -5.0528   -2.3871 C.3       0 UNK        -0.2020 
      2 C          24.2875   -4.2873   -1.8050 C.2       0 UNK         0.4855 
      3 O          24.1103   -3.1823   -1.2908 O.2       0 UNK        -0.5197 
      4 N          25.4911   -4.8707   -1.8775 N.am      1 UNK        -0.4892 
      5 CA         26.7341   -4.2748   -1.3766 C.3       1 UNK         0.0835 
      6 C6         27.8664   -5.3274   -1.2702 C.3       12 UNK        -0.0855 
      7 S7         29.1442   -4.8561   -0.0486 S.3       12 UNK        -0.2931 
      8 C8         30.7020   -5.2097   -0.9279 C.3       12 UNK         0.0378 
      9 C9         30.9569   -4.2365   -2.0702 C.ar      12 UNK        -0.0802 
     10 C10        31.5196   -2.9790   -1.8212 C.ar      12 UNK        -0.0944 
     11 C11        31.7404   -2.0790   -2.8705 C.ar      12 UNK        -0.0787 
     12 C12        31.3877   -2.4480   -4.1695 C.ar      12 UNK        -0.0862 
     13 C13        30.8511   -3.7093   -4.4352 C.ar      12 UNK        -0.0733 
     14 C14        30.6427   -4.6015   -3.3823 C.ar      12 UNK        -0.0832 
     15 C15        30.4925   -4.1094   -5.8572 C.3       12 UNK         0.0240 
     16 S16        28.7681   -3.6881   -6.2460 S.3       12 UNK        -0.2522 
     17 C17        28.8968   -1.8761   -6.3747 C.3       12 UNK        -0.0967 
     18 CA         27.6324   -1.2436   -6.9829 C.3       5 UNK         0.0660 
     19 N          26.4552   -1.4588   -6.1324 N.am      5 UNK        -0.4015 
     20 C          25.1937   -1.1921   -6.4971 C.2       4 UNK         0.4946 
     21 O          24.8853   -0.6792   -7.5729 O.2       4 UNK        -0.5353 
     22 CA         24.0961   -1.5311   -5.4803 C.3       4 UNK         0.0277 
     23 CB         23.8646   -3.0484   -5.4021 C.3       4 UNK        -0.1981 
     24 N          24.4225   -0.9992   -4.1572 N.am      4 UNK        -0.4209 
     25 C          24.2603    0.2871   -3.8133 C.2       3 UNK         0.4942 
     26 O          23.7218    1.1267   -4.5352 O.2       3 UNK        -0.5208 
     27 CA         24.8074    0.7261   -2.4436 C.3       3 UNK         0.0250 
     28 CB         23.7277    0.5845   -1.3591 C.3       3 UNK        -0.1990 
     29 N          26.0114    0.0003   -2.0313 N.am      3 UNK        -0.4232 
     30 C          27.1849    0.0342   -2.6801 C.2       2 UNK         0.4993 
     31 O          27.3836    0.6867   -3.7012 O.2       2 UNK        -0.5286 
     32 CA         28.3164   -0.8441   -2.1259 C.3       2 UNK         0.0209 
     33 CB         29.1195   -0.0716   -1.0677 C.3       2 UNK        -0.1931 
     34 N          27.8479   -2.1068   -1.5521 N.am      2 UNK        -0.4546 
     35 C          27.1472   -3.0408   -2.2086 C.2       1 UNK         0.5154 
     36 O          26.8088   -2.9379   -3.3931 O.2       1 UNK        -0.5181 
     37 C          27.8786    0.2378   -7.3407 C.2       5 UNK         0.5014 
     38 O          28.4213    0.5117   -8.4141 O.2       5 UNK        -0.5248 
     39 N          27.4393    1.1689   -6.4809 N.am      6 UNK        -0.4434 
     40 CA         27.4486    2.6160   -6.7106 C.3       6 UNK         0.0363 
     41 CB         26.9128    3.3409   -5.4658 C.3       6 UNK        -0.1936 
     42 C          26.6685    3.0657   -7.9587 C.2       6 UNK         0.5081 
     43 O          27.0239    4.0929   -8.5346 O.2       6 UNK        -0.5248 
     44 N          25.6672    2.2860   -8.3972 N.am      7 UNK        -0.4718 
     45 CA         24.9285    2.5268   -9.6432 C.3       7 UNK         0.0273 
     46 CB         23.6854    1.6256   -9.6894 C.3       7 UNK        -0.1935 
     47 C          25.7896    2.3249  -10.9048 C.2       7 UNK         0.5018 
     48 O          25.5203    2.9598  -11.9248 O.2       7 UNK        -0.5186 
     49 N          26.8178    1.4714  -10.8047 N.am      8 UNK        -0.4240 
     50 CA         27.8407    1.2573  -11.8307 C.3       8 UNK         0.0235 
     51 CB         28.1496   -0.2488  -11.9006 C.3       8 UNK        -0.2000 
     52 C          29.1275    2.0543  -11.5400 C.2       8 UNK         0.4941 
     53 O          30.0546    1.9986  -12.3486 O.2       8 UNK        -0.5273 
     54 N          29.1772    2.7464  -10.3894 N.am      9 UNK        -0.4262 
     55 CA         30.3305    3.4320   -9.7937 C.3       9 UNK         0.0264 
     56 CB         30.7254    4.6667  -10.6310 C.3       9 UNK        -0.1955 
     57 C          31.5168    2.4834   -9.5180 C.2       9 UNK         0.5031 
     58 O          32.6720    2.8938   -9.6502 O.2       9 UNK        -0.5390 
     59 N          31.2147    1.2291   -9.1586 N.am      10 UNK        -0.4204 
     60 CA         32.1957    0.1652   -8.9543 C.3       10 UNK         0.0237 
     61 CB         31.6433   -1.1302   -9.5738 C.3       10 UNK        -0.1985 
     62 C          32.4845   -0.0387   -7.4614 C.2       10 UNK         0.4970 
     63 O          31.5762    0.1077   -6.6431 O.2       10 UNK        -0.4914 
     64 N          33.7279   -0.4277   -7.1581 N.am      11 UNK        -0.4285 
     65 CA         34.2357   -0.8912   -5.8566 C.3       11 UNK         0.1007 
     66 C          35.6669   -1.4766   -6.0283 C.2       11 UNK         0.5703 
     67 N          35.8885   -2.3176   -7.0338 N.am      11 UNK        -0.7361 
     68 O          36.5915   -1.1605   -5.2818 O.2       11 UNK        -0.4986 
     69 C69        34.0908    0.1498   -4.7030 C.3       12 UNK        -0.0947 
     70 S70        34.0993   -0.6137   -3.0390 S.3       12 UNK        -0.2240 
     71 C71        32.3303   -0.6999   -2.6034 C.3       12 UNK         0.0194 
     72 H72        23.4099   -5.6537   -3.2453 H         1 UNK         0.0906 
     73 H73        22.3299   -4.3649   -2.7127 H         1 UNK         0.0906 
     74 H74        22.6827   -5.7139   -1.6337 H         1 UNK         0.0906 
     75 H75        25.5842   -5.7613   -2.3448 H         1 UNK         0.3140 
     76 H76        26.5085   -3.9233   -0.3667 H         1 UNK         0.1085 
     77 H77        28.3037   -5.5308   -2.2474 H         1 UNK         0.0836 
     78 H78        27.4566   -6.2800   -0.9302 H         1 UNK         0.0836 
     79 H79        31.5263   -5.1537   -0.2153 H         1 UNK         0.0731 
     80 H80        30.6876   -6.2385   -1.2915 H         1 UNK         0.0731 
     81 H81        31.7743   -2.6987   -0.8083 H         1 UNK         0.1312 
     82 H82        31.5245   -1.7463   -4.9767 H         1 UNK         0.1406 
     83 H83        30.2242   -5.5773   -3.5875 H         1 UNK         0.1631 
     84 H84        30.6298   -5.1840   -5.9869 H         1 UNK         0.0717 
     85 H85        31.1631   -3.6293   -6.5719 H         1 UNK         0.0717 
     86 H86        29.0953   -1.4527   -5.3892 H         1 UNK         0.0934 
     87 H87        29.7656   -1.6545   -6.9934 H         1 UNK         0.0934 
     88 H88        27.4317   -1.7487   -7.9304 H         1 UNK         0.0739 
     89 H89        26.6242   -1.9062   -5.2370 H         1 UNK         0.3093 
     90 H90        23.1680   -1.0713   -5.8278 H         1 UNK         0.0818 
     91 H91        23.6564   -3.4619   -6.3898 H         1 UNK         0.0819 
     92 H92        24.7308   -3.5776   -5.0036 H         1 UNK         0.0819 
     93 H93        23.0073   -3.2793   -4.7714 H         1 UNK         0.0819 
     94 H94        24.9001   -1.6197   -3.5154 H         1 UNK         0.3041 
     95 H95        25.0738    1.7823   -2.5246 H         1 UNK         0.0784 
     96 H96        22.8273    1.1375   -1.6306 H         1 UNK         0.0793 
     97 H97        23.4383   -0.4569   -1.2112 H         1 UNK         0.0793 
     98 H98        24.0712    0.9775   -0.4021 H         1 UNK         0.0793 
     99 H99        25.9328   -0.5867   -1.2133 H         1 UNK         0.3024 
    100 H100       28.9788   -1.0901   -2.9579 H         1 UNK         0.1171 
    101 H101       29.5533    0.8341   -1.4941 H         1 UNK         0.0786 
    102 H102       28.4949    0.2302   -0.2259 H         1 UNK         0.0786 
    103 H103       29.9401   -0.6703   -0.6739 H         1 UNK         0.0786 
    104 H104       28.1135   -2.2926   -0.5951 H         1 UNK         0.2977 
    105 H105       27.1212    0.8673   -5.5624 H         1 UNK         0.3127 
    106 H106       28.4890    2.9127   -6.8563 H         1 UNK         0.0770 
    107 H107       25.9082    3.0047   -5.2055 H         1 UNK         0.0814 
    108 H108       26.8670    4.4190   -5.6264 H         1 UNK         0.0814 
    109 H109       27.5572    3.1748   -4.6028 H         1 UNK         0.0814 
    110 H110       25.4420    1.4368   -7.8899 H         1 UNK         0.2983 
    111 H111       24.5948    3.5667   -9.6389 H         1 UNK         0.0947 
    112 H112       23.9535    0.5702   -9.7440 H         1 UNK         0.0806 
    113 H113       23.0747    1.8505  -10.5648 H         1 UNK         0.0806 
    114 H114       23.0571    1.7671   -8.8100 H         1 UNK         0.0806 
    115 H115       26.9790    1.0083   -9.9173 H         1 UNK         0.3000 
    116 H116       27.4699    1.5784  -12.8063 H         1 UNK         0.0850 
    117 H117       28.8794   -0.4639  -12.6822 H         1 UNK         0.0810 
    118 H118       27.2540   -0.8269  -12.1277 H         1 UNK         0.0810 
    119 H119       28.5605   -0.6211  -10.9612 H         1 UNK         0.0810 
    120 H120       28.3431    2.7474   -9.8180 H         1 UNK         0.3040 
    121 H121       29.9991    3.7896   -8.8179 H         1 UNK         0.0766 
    122 H122       31.1239    4.3840  -11.6057 H         1 UNK         0.0812 
    123 H123       31.4919    5.2544  -10.1247 H         1 UNK         0.0812 
    124 H124       29.8711    5.3236  -10.7946 H         1 UNK         0.0812 
    125 H125       30.2427    0.9876   -8.9811 H         1 UNK         0.3205 
    126 H126       33.1292    0.4139   -9.4640 H         1 UNK         0.0754 
    127 H127       32.3290   -1.9652   -9.4241 H         1 UNK         0.0769 
    128 H128       31.4986   -1.0191  -10.6489 H         1 UNK         0.0769 
    129 H129       30.6833   -1.4115   -9.1403 H         1 UNK         0.0769 
    130 H130       34.4069   -0.4946   -7.9041 H         1 UNK         0.2981 
    131 H131       33.6314   -1.7580   -5.5964 H         1 UNK         0.0541 
    132 H132       36.8167   -2.6915   -7.1571 H         1 UNK         0.3459 
    133 H133       35.1410   -2.6308   -7.6335 H         1 UNK         0.3459 
    134 H134       33.1746    0.7296   -4.7992 H         1 UNK         0.0612 
    135 H135       34.8943    0.8865   -4.7523 H         1 UNK         0.0612 
    136 H136       31.7615    0.0598   -3.1412 H         1 UNK         0.0624 
    137 H137       32.2331   -0.4530   -1.5456 H         1 UNK         0.0624 
@<TRIPOS>BOND
     1    1    2 1    
     2    1   72 1    
     3    1   73 1    
     4    1   74 1    
     5    2    3 2    
     6    2    4 am   BACKBONE|DICT|INTERRES
     7    4    5 1    
     8    4   75 1    
     9    5    6 1    
    10    5   35 1    
    11    5   76 1    
    12    6    7 1    
    13    6   77 1    
    14    6   78 1    
    15    7    8 1    
    16    8    9 1    
    17    8   79 1    
    18    8   80 1    
    19    9   10 ar   
    20    9   14 ar   
    21   10   11 ar   
    22   10   81 1    
    23   11   12 ar   
    24   11   71 1    
    25   12   13 ar   
    26   12   82 1    
    27   13   14 ar   
    28   13   15 1    
    29   14   83 1    
    30   15   16 1    
    31   15   84 1    
    32   15   85 1    
    33   16   17 1    
    34   17   18 1    
    35   17   86 1    
    36   17   87 1    
    37   18   19 1    
    38   18   37 1    
    39   18   88 1    
    40   19   20 am   BACKBONE|DICT|INTERRES
    41   19   89 1    
    42   20   21 2    
    43   20   22 1    
    44   22   23 1    
    45   22   24 1    
    46   22   90 1    
    47   23   91 1    
    48   23   92 1    
    49   23   93 1    
    50   24   25 am   BACKBONE|DICT|INTERRES
    51   24   94 1    
    52   25   26 2    
    53   25   27 1    
    54   27   28 1    
    55   27   29 1    
    56   27   95 1    
    57   28   96 1    
    58   28   97 1    
    59   28   98 1    
    60   29   30 am   BACKBONE|DICT|INTERRES
    61   29   99 1    
    62   30   31 2    
    63   30   32 1    
    64   32   33 1    
    65   32   34 1    
    66   32  100 1    
    67   33  101 1    
    68   33  102 1    
    69   33  103 1    
    70   34   35 am   BACKBONE|DICT|INTERRES
    71   34  104 1    
    72   35   36 2    
    73   37   38 2    
    74   37   39 am   BACKBONE|DICT|INTERRES
    75   39   40 1    
    76   39  105 1    
    77   40   41 1    
    78   40   42 1    
    79   40  106 1    
    80   41  107 1    
    81   41  108 1    
    82   41  109 1    
    83   42   43 2    
    84   42   44 am   BACKBONE|DICT|INTERRES
    85   44   45 1    
    86   44  110 1    
    87   45   46 1    
    88   45   47 1    
    89   45  111 1    
    90   46  112 1    
    91   46  113 1    
    92   46  114 1    
    93   47   48 2    
    94   47   49 am   BACKBONE|DICT|INTERRES
    95   49   50 1    
    96   49  115 1    
    97   50   51 1    
    98   50   52 1    
    99   50  116 1    
   100   51  117 1    
   101   51  118 1    
   102   51  119 1    
   103   52   53 2    
   104   52   54 am   BACKBONE|DICT|INTERRES
   105   54   55 1    
   106   54  120 1    
   107   55   56 1    
   108   55   57 1    
   109   55  121 1    
   110   56  122 1    
   111   56  123 1    
   112   56  124 1    
   113   57   58 2    
   114   57   59 am   BACKBONE|DICT|INTERRES
   115   59   60 1    
   116   59  125 1    
   117   60   61 1    
   118   60   62 1    
   119   60  126 1    
   120   61  127 1    
   121   61  128 1    
   122   61  129 1    
   123   62   63 2    
   124   62   64 am   BACKBONE|DICT|INTERRES
   125   64   65 1    
   126   64  130 1    
   127   65   66 1    
   128   65   69 1    
   129   65  131 1    
   130   66   67 am   BACKBONE|DICT|INTERRES
   131   66   68 2    
   132   67  132 1    
   133   67  133 1    
   134   69   70 1    
   135   69  134 1    
   136   69  135 1    
   137   70   71 1    
   138   71  136 1    
   139   71  137 1    
@<TRIPOS>SUBSTRUCTURE
     1 UNK         1 GROUP             0       ****    0 ROOT    
