@<TRIPOS>MOLECULE
3R137
137   139    1
SMALL
USER_CHARGES


@<TRIPOS>ATOM
      1 CA         25.2526   -1.9467    2.5511 C.3       0 UNK        -0.2020 
      2 C          26.6672   -1.7835    2.0152 C.2       0 UNK         0.4855 
      3 O          27.5768   -1.4494    2.7746 O.2       0 UNK        -0.5197 
      4 N          26.8590   -2.0141    0.7136 N.am      1 UNK        -0.4892 
      5 CA         28.1261   -1.8799    0.0008 C.3       1 UNK         0.0835 
      6 C6         29.0193   -3.1362    0.1818 C.3       12 UNK        -0.0855 
      7 S7         30.7087   -2.9585   -0.4983 S.3       12 UNK        -0.2931 
      8 C8         30.8691   -4.4433   -1.5465 C.3       12 UNK         0.0378 
      9 C9         30.2964   -4.2480   -2.9460 C.ar      12 UNK        -0.0802 
     10 C10        31.1383   -3.9137   -4.0125 C.ar      12 UNK        -0.0944 
     11 C11        30.6256   -3.7920   -5.3075 C.ar      12 UNK        -0.0787 
     12 C12        29.2595   -3.9864   -5.5288 C.ar      12 UNK        -0.0862 
     13 C13        28.3959   -4.2919   -4.4694 C.ar      12 UNK        -0.0733 
     14 C14        28.9317   -4.4384   -3.1858 C.ar      12 UNK        -0.0832 
     15 C15        26.8808   -4.4235   -4.6403 C.3       12 UNK         0.0240 
     16 S16        26.2874   -4.8061   -6.3255 S.3       12 UNK        -0.2522 
     17 C17        26.2802   -3.1674   -7.1310 C.3       12 UNK        -0.0967 
     18 CA         24.8823   -2.4992   -7.0838 C.3       5 UNK         0.0660 
     19 N          24.5865   -2.0132   -5.7381 N.am      5 UNK        -0.4015 
     20 C          23.4962   -2.3091   -5.0195 C.2       4 UNK         0.4946 
     21 O          22.5904   -3.0405   -5.4233 O.2       4 UNK        -0.5353 
     22 CA         23.3874   -1.7143   -3.6005 C.3       4 UNK         0.0277 
     23 CB         23.5315   -2.8201   -2.5408 C.3       4 UNK        -0.1981 
     24 N          24.3759   -0.6656   -3.3353 N.am      4 UNK        -0.4209 
     25 C          24.2715    0.5973   -3.7778 C.2       3 UNK         0.4942 
     26 O          23.2778    1.0301   -4.3624 O.2       3 UNK        -0.5208 
     27 CA         25.4681    1.5432   -3.5489 C.3       3 UNK         0.0250 
     28 CB         25.1705    2.5162   -2.3963 C.3       3 UNK        -0.1990 
     29 N          26.7401    0.8649   -3.2824 N.am      3 UNK        -0.4232 
     30 C          27.3699    0.0348   -4.1255 C.2       2 UNK         0.4993 
     31 O          26.9564   -0.2450   -5.2486 O.2       2 UNK        -0.5286 
     32 CA         28.6489   -0.6405   -3.6114 C.3       2 UNK         0.0209 
     33 CB         29.8806    0.1812   -4.0031 C.3       2 UNK        -0.1931 
     34 N          28.6862   -0.8983   -2.1685 N.am      2 UNK        -0.4546 
     35 C          27.7802   -1.5942   -1.4695 C.2       1 UNK         0.5154 
     36 O          26.7118   -2.0025   -1.9365 O.2       1 UNK        -0.5181 
     37 C          24.8137   -1.3135   -8.0624 C.2       5 UNK         0.5014 
     38 O          24.9670   -0.1582   -7.6602 O.2       5 UNK        -0.5248 
     39 N          24.6207   -1.6242   -9.3516 N.am      6 UNK        -0.4434 
     40 CA         24.6042   -0.6439  -10.4445 C.3       6 UNK         0.0363 
     41 CB         24.0071   -1.2994  -11.7007 C.3       6 UNK        -0.1936 
     42 C          25.9900   -0.0455  -10.7579 C.2       6 UNK         0.5081 
     43 O          26.0585    1.0282  -11.3562 O.2       6 UNK        -0.5248 
     44 N          27.0610   -0.7514  -10.3656 N.am      7 UNK        -0.4718 
     45 CA         28.4578   -0.3475  -10.5428 C.3       7 UNK         0.0273 
     46 CB         29.3707   -1.5220  -10.1553 C.3       7 UNK        -0.1935 
     47 C          28.8319    0.9224   -9.7586 C.2       7 UNK         0.5018 
     48 O          29.5349    1.7752  -10.3046 O.2       7 UNK        -0.5186 
     49 N          28.3409    1.0272   -8.5123 N.am      8 UNK        -0.4240 
     50 CA         28.4939    2.1563   -7.5869 C.3       8 UNK         0.0235 
     51 CB         27.4945    3.2722   -7.9632 C.3       8 UNK        -0.2000 
     52 C          29.9554    2.6355   -7.4681 C.2       8 UNK         0.4941 
     53 O          30.7855    1.9106   -6.9211 O.2       8 UNK        -0.5273 
     54 N          30.2591    3.8209   -8.0158 N.am      9 UNK        -0.4262 
     55 CA         31.5899    4.4361   -8.0368 C.3       9 UNK         0.0264 
     56 CB         31.4952    5.8207   -8.6975 C.3       9 UNK        -0.1955 
     57 C          32.6841    3.5910   -8.7178 C.2       9 UNK         0.5031 
     58 O          33.8554    3.7474   -8.3676 O.2       9 UNK        -0.5390 
     59 N          32.3054    2.6925   -9.6415 N.am      10 UNK        -0.4204 
     60 CA         33.2260    1.7644  -10.3082 C.3       10 UNK         0.0237 
     61 CB         32.5225    1.0993  -11.5019 C.3       10 UNK        -0.1985 
     62 C          33.8308    0.7032   -9.3676 C.2       10 UNK         0.4970 
     63 O          34.8617    0.1256   -9.7151 O.2       10 UNK        -0.4914 
     64 N          33.2118    0.4766   -8.2002 N.am      11 UNK        -0.4285 
     65 CA         33.7479   -0.3757   -7.1269 C.3       11 UNK         0.1007 
     66 C          34.9126    0.2792   -6.3260 C.2       11 UNK         0.5703 
     67 N          35.2157    1.5619   -6.5015 N.am      11 UNK        -0.7361 
     68 O          35.5650   -0.3970   -5.5343 O.2       11 UNK        -0.4986 
     69 C69        32.6291   -0.8688   -6.1731 C.3       12 UNK        -0.0947 
     70 S70        31.3072   -1.7612   -7.0588 S.3       12 UNK        -0.2240 
     71 C71        31.5354   -3.4722   -6.4845 C.3       12 UNK         0.0194 
     72 H72        24.9036   -1.0084    2.9814 H         1 UNK         0.0906 
     73 H73        24.5521   -2.2429    1.7703 H         1 UNK         0.0906 
     74 H74        25.2324   -2.7077    3.3307 H         1 UNK         0.0906 
     75 H75        26.0835   -2.2468    0.1034 H         1 UNK         0.3140 
     76 H76        28.6514   -1.0074    0.3965 H         1 UNK         0.1085 
     77 H77        28.5279   -4.0177   -0.2299 H         1 UNK         0.0836 
     78 H78        29.1348   -3.3456    1.2464 H         1 UNK         0.0836 
     79 H79        30.3951   -5.2970   -1.0597 H         1 UNK         0.0731 
     80 H80        31.9281   -4.6967   -1.6177 H         1 UNK         0.0731 
     81 H81        32.1954   -3.7663   -3.8380 H         1 UNK         0.1312 
     82 H82        28.8831   -3.8807   -6.5349 H         1 UNK         0.1406 
     83 H83        28.2738   -4.6899   -2.3664 H         1 UNK         0.1631 
     84 H84        26.4124   -3.5034   -4.2909 H         1 UNK         0.0717 
     85 H85        26.5176   -5.2160   -3.9843 H         1 UNK         0.0717 
     86 H86        27.0336   -2.5187   -6.6805 H         1 UNK         0.0934 
     87 H87        26.6024   -3.3314   -8.1608 H         1 UNK         0.0934 
     88 H88        24.1308   -3.2265   -7.3987 H         1 UNK         0.0739 
     89 H89        25.2477   -1.3266   -5.3874 H         1 UNK         0.3093 
     90 H90        22.3882   -1.2839   -3.5044 H         1 UNK         0.0818 
     91 H91        23.4409   -2.4189   -1.5313 H         1 UNK         0.0819 
     92 H92        22.7546   -3.5765   -2.6591 H         1 UNK         0.0819 
     93 H93        24.4924   -3.3298   -2.6154 H         1 UNK         0.0819 
     94 H94        25.2260   -0.9569   -2.8616 H         1 UNK         0.3041 
     95 H95        25.5944    2.1232   -4.4658 H         1 UNK         0.0784 
     96 H96        24.2448    3.0648   -2.5768 H         1 UNK         0.0793 
     97 H97        25.0589    1.9932   -1.4456 H         1 UNK         0.0793 
     98 H98        25.9644    3.2551   -2.2841 H         1 UNK         0.0793 
     99 H99        27.1559    1.0196   -2.3756 H         1 UNK         0.3024 
    100 H100       28.7176   -1.6048   -4.1135 H         1 UNK         0.1171 
    101 H101       30.8012   -0.3327   -3.7264 H         1 UNK         0.0786 
    102 H102       29.9047    0.3298   -5.0822 H         1 UNK         0.0786 
    103 H103       29.8845    1.1657   -3.5341 H         1 UNK         0.0786 
    104 H104       29.5393   -0.6319   -1.6973 H         1 UNK         0.2977 
    105 H105       24.4903   -2.5924   -9.6107 H         1 UNK         0.3127 
    106 H106       23.9540    0.1830  -10.1500 H         1 UNK         0.0770 
    107 H107       24.6086   -2.1426  -12.0425 H         1 UNK         0.0814 
    108 H108       23.9515   -0.5853  -12.5238 H         1 UNK         0.0814 
    109 H109       22.9941   -1.6588  -11.5188 H         1 UNK         0.0814 
    110 H110       26.8987   -1.6347   -9.9075 H         1 UNK         0.2983 
    111 H111       28.6117   -0.1292  -11.6020 H         1 UNK         0.0947 
    112 H112       29.1741   -1.8662   -9.1397 H         1 UNK         0.0806 
    113 H113       30.4234   -1.2423  -10.2030 H         1 UNK         0.0806 
    114 H114       29.2323   -2.3691  -10.8271 H         1 UNK         0.0806 
    115 H115       27.7792    0.2631   -8.1635 H         1 UNK         0.3000 
    116 H116       28.2180    1.7870   -6.5986 H         1 UNK         0.0850 
    117 H117       27.5674    4.1198   -7.2803 H         1 UNK         0.0810 
    118 H118       26.4694    2.9049   -7.9035 H         1 UNK         0.0810 
    119 H119       27.6481    3.6398   -8.9786 H         1 UNK         0.0810 
    120 H120       29.5196    4.3287   -8.4791 H         1 UNK         0.3040 
    121 H121       31.8959    4.5738   -6.9977 H         1 UNK         0.0766 
    122 H122       32.4664    6.3180   -8.7032 H         1 UNK         0.0812 
    123 H123       30.8046    6.4718   -8.1611 H         1 UNK         0.0812 
    124 H124       31.1589    5.7515   -9.7329 H         1 UNK         0.0812 
    125 H125       31.3159    2.5842   -9.8513 H         1 UNK         0.3205 
    126 H126       34.0582    2.3539  -10.6989 H         1 UNK         0.0754 
    127 H127       33.2174    0.4757  -12.0660 H         1 UNK         0.0769 
    128 H128       32.1201    1.8416  -12.1915 H         1 UNK         0.0769 
    129 H129       31.7015    0.4599  -11.1813 H         1 UNK         0.0769 
    130 H130       32.3687    0.9902   -7.9680 H         1 UNK         0.2981 
    131 H131       34.1780   -1.2619   -7.5975 H         1 UNK         0.0541 
    132 H132       35.9768    1.9614   -5.9761 H         1 UNK         0.3459 
    133 H133       34.6973    2.1384   -7.1520 H         1 UNK         0.3459 
    134 H134       33.0353   -1.5114   -5.3902 H         1 UNK         0.0612 
    135 H135       32.1841   -0.0165   -5.6610 H         1 UNK         0.0612 
    136 H136       31.2982   -4.1460   -7.3091 H         1 UNK         0.0624 
    137 H137       32.5823   -3.6552   -6.2386 H         1 UNK         0.0624 
@<TRIPOS>BOND
     1    1    2 1    
     2    1   72 1    
     3    1   73 1    
     4    1   74 1    
     5    2    3 2    
     6    2    4 am   BACKBONE|DICT|INTERRES
     7    4    5 1    
     8    4   75 1    
     9    5    6 1    
    10    5   35 1    
    11    5   76 1    
    12    6    7 1    
    13    6   77 1    
    14    6   78 1    
    15    7    8 1    
    16    8    9 1    
    17    8   79 1    
    18    8   80 1    
    19    9   10 ar   
    20    9   14 ar   
    21   10   11 ar   
    22   10   81 1    
    23   11   12 ar   
    24   11   71 1    
    25   12   13 ar   
    26   12   82 1    
    27   13   14 ar   
    28   13   15 1    
    29   14   83 1    
    30   15   16 1    
    31   15   84 1    
    32   15   85 1    
    33   16   17 1    
    34   17   18 1    
    35   17   86 1    
    36   17   87 1    
    37   18   19 1    
    38   18   37 1    
    39   18   88 1    
    40   19   20 am   BACKBONE|DICT|INTERRES
    41   19   89 1    
    42   20   21 2    
    43   20   22 1    
    44   22   23 1    
    45   22   24 1    
    46   22   90 1    
    47   23   91 1    
    48   23   92 1    
    49   23   93 1    
    50   24   25 am   BACKBONE|DICT|INTERRES
    51   24   94 1    
    52   25   26 2    
    53   25   27 1    
    54   27   28 1    
    55   27   29 1    
    56   27   95 1    
    57   28   96 1    
    58   28   97 1    
    59   28   98 1    
    60   29   30 am   BACKBONE|DICT|INTERRES
    61   29   99 1    
    62   30   31 2    
    63   30   32 1    
    64   32   33 1    
    65   32   34 1    
    66   32  100 1    
    67   33  101 1    
    68   33  102 1    
    69   33  103 1    
    70   34   35 am   BACKBONE|DICT|INTERRES
    71   34  104 1    
    72   35   36 2    
    73   37   38 2    
    74   37   39 am   BACKBONE|DICT|INTERRES
    75   39   40 1    
    76   39  105 1    
    77   40   41 1    
    78   40   42 1    
    79   40  106 1    
    80   41  107 1    
    81   41  108 1    
    82   41  109 1    
    83   42   43 2    
    84   42   44 am   BACKBONE|DICT|INTERRES
    85   44   45 1    
    86   44  110 1    
    87   45   46 1    
    88   45   47 1    
    89   45  111 1    
    90   46  112 1    
    91   46  113 1    
    92   46  114 1    
    93   47   48 2    
    94   47   49 am   BACKBONE|DICT|INTERRES
    95   49   50 1    
    96   49  115 1    
    97   50   51 1    
    98   50   52 1    
    99   50  116 1    
   100   51  117 1    
   101   51  118 1    
   102   51  119 1    
   103   52   53 2    
   104   52   54 am   BACKBONE|DICT|INTERRES
   105   54   55 1    
   106   54  120 1    
   107   55   56 1    
   108   55   57 1    
   109   55  121 1    
   110   56  122 1    
   111   56  123 1    
   112   56  124 1    
   113   57   58 2    
   114   57   59 am   BACKBONE|DICT|INTERRES
   115   59   60 1    
   116   59  125 1    
   117   60   61 1    
   118   60   62 1    
   119   60  126 1    
   120   61  127 1    
   121   61  128 1    
   122   61  129 1    
   123   62   63 2    
   124   62   64 am   BACKBONE|DICT|INTERRES
   125   64   65 1    
   126   64  130 1    
   127   65   66 1    
   128   65   69 1    
   129   65  131 1    
   130   66   67 am   BACKBONE|DICT|INTERRES
   131   66   68 2    
   132   67  132 1    
   133   67  133 1    
   134   69   70 1    
   135   69  134 1    
   136   69  135 1    
   137   70   71 1    
   138   71  136 1    
   139   71  137 1    
@<TRIPOS>SUBSTRUCTURE
     1 UNK         1 GROUP             0       ****    0 ROOT    
