@<TRIPOS>MOLECULE
3R137
137   139    1
SMALL
USER_CHARGES


@<TRIPOS>ATOM
      1 CA         25.7199   -1.7973    0.7341 C.3       0 UNK        -0.2020 
      2 C          26.7721   -1.1572   -0.1581 C.2       0 UNK         0.4855 
      3 O          26.8542    0.0697   -0.2241 O.2       0 UNK        -0.5197 
      4 N          27.5685   -1.9799   -0.8546 N.am      1 UNK        -0.4892 
      5 CA         28.6120   -1.5770   -1.8072 C.3       1 UNK         0.0835 
      6 C6         29.3402   -2.8253   -2.3716 C.3       12 UNK        -0.0855 
      7 S7         31.0511   -2.4766   -2.8879 S.3       12 UNK        -0.2931 
      8 C8         31.4457   -3.9773   -3.8418 C.3       12 UNK         0.0378 
      9 C9         31.4025   -3.7378   -5.3463 C.ar      12 UNK        -0.0802 
     10 C10        32.5945   -3.6166   -6.0688 C.ar      12 UNK        -0.0944 
     11 C11        32.5745   -3.4509   -7.4578 C.ar      12 UNK        -0.0787 
     12 C12        31.3449   -3.4026   -8.1218 C.ar      12 UNK        -0.0862 
     13 C13        30.1457   -3.5384   -7.4166 C.ar      12 UNK        -0.0733 
     14 C14        30.1806   -3.6995   -6.0270 C.ar      12 UNK        -0.0832 
     15 C15        28.8253   -3.5873   -8.1751 C.3       12 UNK         0.0240 
     16 S16        28.1554   -1.9338   -8.5357 S.3       12 UNK        -0.2522 
     17 C17        27.3162   -1.5444   -6.9661 C.3       12 UNK        -0.0967 
     18 CA         25.8447   -2.0310   -6.9259 C.3       5 UNK         0.0660 
     19 N          25.3280   -1.9768   -5.5605 N.am      5 UNK        -0.4015 
     20 C          24.1483   -2.4463   -5.1342 C.2       4 UNK         0.4946 
     21 O          23.3301   -3.0134   -5.8598 O.2       4 UNK        -0.5353 
     22 CA         23.8345   -2.2733   -3.6396 C.3       4 UNK         0.0277 
     23 CB         24.4943   -3.3954   -2.8197 C.3       4 UNK        -0.1981 
     24 N          24.2934   -0.9768   -3.1350 N.am      4 UNK        -0.4209 
     25 C          23.5083    0.0941   -2.9474 C.2       3 UNK         0.4942 
     26 O          22.2957    0.0972   -3.1636 O.2       3 UNK        -0.5208 
     27 CA         24.1669    1.3807   -2.4121 C.3       3 UNK         0.0250 
     28 CB         23.8506    1.5714   -0.9196 C.3       3 UNK        -0.1990 
     29 N          25.6190    1.4059   -2.6108 N.am      3 UNK        -0.4232 
     30 C          26.2009    1.7258   -3.7766 C.2       2 UNK         0.4993 
     31 O          25.5747    2.1256   -4.7568 O.2       2 UNK        -0.5286 
     32 CA         27.7284    1.5602   -3.8920 C.3       2 UNK         0.0209 
     33 CB         28.4271    2.9217   -3.7438 C.3       2 UNK        -0.1931 
     34 N          28.3141    0.5909   -2.9559 N.am      2 UNK        -0.4546 
     35 C          28.0023   -0.7127   -2.9295 C.2       1 UNK         0.5154 
     36 O          27.1777   -1.2248   -3.6877 O.2       1 UNK        -0.5181 
     37 C          24.9569   -1.2253   -7.8936 C.2       5 UNK         0.5014 
     38 O          24.7259   -0.0384   -7.6579 O.2       5 UNK        -0.5248 
     39 N          24.5313   -1.8606   -8.9949 N.am      6 UNK        -0.4434 
     40 CA         23.7473   -1.2338  -10.0663 C.3       6 UNK         0.0363 
     41 CB         23.2533   -2.3169  -11.0385 C.3       6 UNK        -0.1936 
     42 C          24.5184   -0.1386  -10.8265 C.2       6 UNK         0.5081 
     43 O          23.9031    0.8116  -11.3098 O.2       6 UNK        -0.5248 
     44 N          25.8496   -0.2768  -10.8946 N.am      7 UNK        -0.4718 
     45 CA         26.7670    0.7190  -11.4551 C.3       7 UNK         0.0273 
     46 CB         28.0158   -0.0056  -11.9878 C.3       7 UNK        -0.1935 
     47 C          27.1671    1.8084  -10.4401 C.2       7 UNK         0.5018 
     48 O          27.8692    2.7440  -10.8248 O.2       7 UNK        -0.5186 
     49 N          26.7487    1.6596   -9.1717 N.am      8 UNK        -0.4240 
     50 CA         27.0741    2.5034   -8.0144 C.3       8 UNK         0.0235 
     51 CB         26.4430    3.9041   -8.1585 C.3       8 UNK        -0.2000 
     52 C          28.5808    2.5553   -7.6849 C.2       8 UNK         0.4941 
     53 O          29.0546    3.5545   -7.1410 O.2       8 UNK        -0.5273 
     54 N          29.3096    1.4819   -8.0170 N.am      9 UNK        -0.4262 
     55 CA         30.7343    1.3273   -7.7364 C.3       9 UNK         0.0264 
     56 CB         31.3402    0.3551   -8.7616 C.3       9 UNK        -0.1955 
     57 C          30.9533    0.8058   -6.3095 C.2       9 UNK         0.5031 
     58 O          30.1196    0.0599   -5.7944 O.2       9 UNK        -0.5390 
     59 N          32.0935    1.1783   -5.7220 N.am      10 UNK        -0.4204 
     60 CA         32.5767    0.6821   -4.4381 C.3       10 UNK         0.0237 
     61 CB         32.2278    1.6679   -3.3079 C.3       10 UNK        -0.1985 
     62 C          34.0792    0.4392   -4.5806 C.2       10 UNK         0.4970 
     63 O          34.8821    1.2860   -4.1854 O.2       10 UNK        -0.4914 
     64 N          34.4232   -0.6851   -5.2169 N.am      11 UNK        -0.4285 
     65 CA         35.8021   -1.0549   -5.5754 C.3       11 UNK         0.1007 
     66 C          36.7235   -1.4275   -4.3765 C.2       11 UNK         0.5703 
     67 N          36.1978   -1.6678   -3.1809 N.am      11 UNK        -0.7361 
     68 O          37.9399   -1.4963   -4.5364 O.2       11 UNK        -0.4986 
     69 C69        35.8459   -2.1610   -6.6622 C.3       12 UNK        -0.0947 
     70 S70        34.7616   -1.8270   -8.0954 S.3       12 UNK        -0.2240 
     71 C71        33.8702   -3.4064   -8.2604 C.3       12 UNK         0.0194 
     72 H72        25.7689   -1.3724    1.7364 H         1 UNK         0.0906 
     73 H73        24.7240   -1.6116    0.3330 H         1 UNK         0.0906 
     74 H74        25.8568   -2.8752    0.8176 H         1 UNK         0.0906 
     75 H75        27.4336   -2.9764   -0.7616 H         1 UNK         0.3140 
     76 H76        29.3301   -0.9731   -1.2481 H         1 UNK         0.1085 
     77 H77        29.4098   -3.5970   -1.6029 H         1 UNK         0.0836 
     78 H78        28.7828   -3.2796   -3.1929 H         1 UNK         0.0836 
     79 H79        32.4388   -4.3182   -3.5449 H         1 UNK         0.0731 
     80 H80        30.7648   -4.7873   -3.5761 H         1 UNK         0.0731 
     81 H81        33.5383   -3.6851   -5.5484 H         1 UNK         0.1312 
     82 H82        31.3186   -3.2930   -9.1975 H         1 UNK         0.1406 
     83 H83        29.2585   -3.8197   -5.4765 H         1 UNK         0.1631 
     84 H84        28.0883   -4.1733   -7.6241 H         1 UNK         0.0717 
     85 H85        28.9730   -4.1108   -9.1208 H         1 UNK         0.0717 
     86 H86        27.8889   -1.9925   -6.1540 H         1 UNK         0.0934 
     87 H87        27.3757   -0.4692   -6.7894 H         1 UNK         0.0934 
     88 H88        25.8212   -3.0820   -7.2209 H         1 UNK         0.0739 
     89 H89        25.9633   -1.5763   -4.8717 H         1 UNK         0.3093 
     90 H90        22.7529   -2.3614   -3.5160 H         1 UNK         0.0818 
     91 H91        25.5820   -3.3717   -2.8966 H         1 UNK         0.0819 
     92 H92        24.2315   -3.3205   -1.7645 H         1 UNK         0.0819 
     93 H93        24.1645   -4.3759   -3.1658 H         1 UNK         0.0819 
     94 H94        25.2920   -0.8773   -2.9957 H         1 UNK         0.3041 
     95 H95        23.7245    2.2201   -2.9533 H         1 UNK         0.0784 
     96 H96        22.7738    1.6262   -0.7540 H         1 UNK         0.0793 
     97 H97        24.2293    0.7483   -0.3144 H         1 UNK         0.0793 
     98 H98        24.2838    2.4956   -0.5369 H         1 UNK         0.0793 
     99 H99        26.1950    1.0864   -1.8365 H         1 UNK         0.3024 
    100 H100       27.9190    1.1906   -4.9012 H         1 UNK         0.1171 
    101 H101       27.9465    3.6782   -4.3665 H         1 UNK         0.0786 
    102 H102       29.4650    2.8707   -4.0691 H         1 UNK         0.0786 
    103 H103       28.4044    3.2822   -2.7150 H         1 UNK         0.0786 
    104 H104       28.9559    0.9547   -2.2670 H         1 UNK         0.2977 
    105 H105       24.7644   -2.8361   -9.1169 H         1 UNK         0.3127 
    106 H106       22.8755   -0.7612   -9.6084 H         1 UNK         0.0770 
    107 H107       24.0819   -2.8415  -11.5159 H         1 UNK         0.0814 
    108 H108       22.6450   -1.8798  -11.8318 H         1 UNK         0.0814 
    109 H109       22.6344   -3.0560  -10.5294 H         1 UNK         0.0814 
    110 H110       26.2699   -1.0941  -10.4741 H         1 UNK         0.2983 
    111 H111       26.2815    1.2222  -12.2945 H         1 UNK         0.0947 
    112 H112       28.6978    0.6951  -12.4715 H         1 UNK         0.0806 
    113 H113       27.7517   -0.7597  -12.7293 H         1 UNK         0.0806 
    114 H114       28.5718   -0.4986  -11.1898 H         1 UNK         0.0806 
    115 H115       26.1302    0.8834   -8.9661 H         1 UNK         0.3000 
    116 H116       26.6014    2.0208   -7.1591 H         1 UNK         0.0850 
    117 H117       26.5510    4.4767   -7.2364 H         1 UNK         0.0810 
    118 H118       25.3762    3.8371   -8.3716 H         1 UNK         0.0810 
    119 H119       26.9118    4.4799   -8.9570 H         1 UNK         0.0810 
    120 H120       28.8414    0.6751   -8.4033 H         1 UNK         0.3040 
    121 H121       31.2265    2.2965   -7.8436 H         1 UNK         0.0766 
    122 H122       31.1928    0.7092   -9.7820 H         1 UNK         0.0812 
    123 H123       30.8964   -0.6373   -8.6837 H         1 UNK         0.0812 
    124 H124       32.4140    0.2414   -8.6087 H         1 UNK         0.0812 
    125 H125       32.7369    1.7714   -6.2289 H         1 UNK         0.3205 
    126 H126       32.1135   -0.2774   -4.2121 H         1 UNK         0.0754 
    127 H127       32.7046    1.3735   -2.3720 H         1 UNK         0.0769 
    128 H128       31.1554    1.6852   -3.1250 H         1 UNK         0.0769 
    129 H129       32.5513    2.6837   -3.5379 H         1 UNK         0.0769 
    130 H130       33.6981   -1.3049   -5.5477 H         1 UNK         0.2981 
    131 H131       36.2507   -0.1636   -6.0187 H         1 UNK         0.0541 
    132 H132       35.2027   -1.6105   -3.0381 H         1 UNK         0.3459 
    133 H133       36.8063   -1.9043   -2.4133 H         1 UNK         0.3459 
    134 H134       36.8626   -2.2666   -7.0449 H         1 UNK         0.0612 
    135 H135       35.5963   -3.1283   -6.2262 H         1 UNK         0.0612 
    136 H136       34.5158   -4.2364   -7.9702 H         1 UNK         0.0624 
    137 H137       33.6573   -3.5582   -9.3196 H         1 UNK         0.0624 
@<TRIPOS>BOND
     1    1    2 1    
     2    1   72 1    
     3    1   73 1    
     4    1   74 1    
     5    2    3 2    
     6    2    4 am   BACKBONE|DICT|INTERRES
     7    4    5 1    
     8    4   75 1    
     9    5    6 1    
    10    5   35 1    
    11    5   76 1    
    12    6    7 1    
    13    6   77 1    
    14    6   78 1    
    15    7    8 1    
    16    8    9 1    
    17    8   79 1    
    18    8   80 1    
    19    9   10 ar   
    20    9   14 ar   
    21   10   11 ar   
    22   10   81 1    
    23   11   12 ar   
    24   11   71 1    
    25   12   13 ar   
    26   12   82 1    
    27   13   14 ar   
    28   13   15 1    
    29   14   83 1    
    30   15   16 1    
    31   15   84 1    
    32   15   85 1    
    33   16   17 1    
    34   17   18 1    
    35   17   86 1    
    36   17   87 1    
    37   18   19 1    
    38   18   37 1    
    39   18   88 1    
    40   19   20 am   BACKBONE|DICT|INTERRES
    41   19   89 1    
    42   20   21 2    
    43   20   22 1    
    44   22   23 1    
    45   22   24 1    
    46   22   90 1    
    47   23   91 1    
    48   23   92 1    
    49   23   93 1    
    50   24   25 am   BACKBONE|DICT|INTERRES
    51   24   94 1    
    52   25   26 2    
    53   25   27 1    
    54   27   28 1    
    55   27   29 1    
    56   27   95 1    
    57   28   96 1    
    58   28   97 1    
    59   28   98 1    
    60   29   30 am   BACKBONE|DICT|INTERRES
    61   29   99 1    
    62   30   31 2    
    63   30   32 1    
    64   32   33 1    
    65   32   34 1    
    66   32  100 1    
    67   33  101 1    
    68   33  102 1    
    69   33  103 1    
    70   34   35 am   BACKBONE|DICT|INTERRES
    71   34  104 1    
    72   35   36 2    
    73   37   38 2    
    74   37   39 am   BACKBONE|DICT|INTERRES
    75   39   40 1    
    76   39  105 1    
    77   40   41 1    
    78   40   42 1    
    79   40  106 1    
    80   41  107 1    
    81   41  108 1    
    82   41  109 1    
    83   42   43 2    
    84   42   44 am   BACKBONE|DICT|INTERRES
    85   44   45 1    
    86   44  110 1    
    87   45   46 1    
    88   45   47 1    
    89   45  111 1    
    90   46  112 1    
    91   46  113 1    
    92   46  114 1    
    93   47   48 2    
    94   47   49 am   BACKBONE|DICT|INTERRES
    95   49   50 1    
    96   49  115 1    
    97   50   51 1    
    98   50   52 1    
    99   50  116 1    
   100   51  117 1    
   101   51  118 1    
   102   51  119 1    
   103   52   53 2    
   104   52   54 am   BACKBONE|DICT|INTERRES
   105   54   55 1    
   106   54  120 1    
   107   55   56 1    
   108   55   57 1    
   109   55  121 1    
   110   56  122 1    
   111   56  123 1    
   112   56  124 1    
   113   57   58 2    
   114   57   59 am   BACKBONE|DICT|INTERRES
   115   59   60 1    
   116   59  125 1    
   117   60   61 1    
   118   60   62 1    
   119   60  126 1    
   120   61  127 1    
   121   61  128 1    
   122   61  129 1    
   123   62   63 2    
   124   62   64 am   BACKBONE|DICT|INTERRES
   125   64   65 1    
   126   64  130 1    
   127   65   66 1    
   128   65   69 1    
   129   65  131 1    
   130   66   67 am   BACKBONE|DICT|INTERRES
   131   66   68 2    
   132   67  132 1    
   133   67  133 1    
   134   69   70 1    
   135   69  134 1    
   136   69  135 1    
   137   70   71 1    
   138   71  136 1    
   139   71  137 1    
@<TRIPOS>SUBSTRUCTURE
     1 UNK         1 GROUP             0       ****    0 ROOT    
