@<TRIPOS>MOLECULE
3R137
137   139    1
SMALL
USER_CHARGES


@<TRIPOS>ATOM
      1 CA         24.2702   -2.6897    1.2935 C.3       0 UNK        -0.2020 
      2 C          25.4615   -2.7399    0.3486 C.2       0 UNK         0.4855 
      3 O          25.8269   -1.7178   -0.2293 O.2       0 UNK        -0.5197 
      4 N          26.0754   -3.9190    0.1941 N.am      1 UNK        -0.4892 
      5 CA         27.1717   -4.1697   -0.7450 C.3       1 UNK         0.0835 
      6 C6         28.0302   -5.3680   -0.2593 C.3       12 UNK        -0.0855 
      7 S7         29.3914   -5.8958   -1.3610 S.3       12 UNK        -0.2931 
      8 C8         30.7412   -4.7594   -0.9107 C.3       12 UNK         0.0378 
      9 C9         30.7213   -3.5046   -1.7717 C.ar      12 UNK        -0.0802 
     10 C10        31.1950   -3.5550   -3.0863 C.ar      12 UNK        -0.0944 
     11 C11        31.1899   -2.4109   -3.8891 C.ar      12 UNK        -0.0787 
     12 C12        30.7078   -1.2084   -3.3655 C.ar      12 UNK        -0.0862 
     13 C13        30.2220   -1.1451   -2.0556 C.ar      12 UNK        -0.0733 
     14 C14        30.2440   -2.2948   -1.2597 C.ar      12 UNK        -0.0832 
     15 C15        29.6883    0.1637   -1.4882 C.3       12 UNK         0.0240 
     16 S16        28.0495    0.5909   -2.1659 S.3       12 UNK        -0.2522 
     17 C17        28.4885    1.5119   -3.6785 C.3       12 UNK        -0.0967 
     18 CA         28.0226    0.7806   -4.9711 C.3       5 UNK         0.0660 
     19 N          26.5656    0.6921   -5.1081 N.am      5 UNK        -0.4015 
     20 C          25.7085    1.7149   -5.2510 C.2       4 UNK         0.4946 
     21 O          26.0666    2.8929   -5.3142 O.2       4 UNK        -0.5353 
     22 CA         24.2026    1.3949   -5.3593 C.3       4 UNK         0.0277 
     23 CB         23.5616    2.1100   -6.5613 C.3       4 UNK        -0.1981 
     24 N          23.9166   -0.0384   -5.4535 N.am      4 UNK        -0.4209 
     25 C          23.7331   -0.8608   -4.4120 C.2       3 UNK         0.4942 
     26 O          23.7498   -0.4955   -3.2368 O.2       3 UNK        -0.5208 
     27 CA         23.5038   -2.3509   -4.7312 C.3       3 UNK         0.0250 
     28 CB         22.9706   -2.6093   -6.1599 C.3       3 UNK        -0.1990 
     29 N          24.7045   -3.1560   -4.4808 N.am      3 UNK        -0.4232 
     30 C          25.9231   -2.9839   -5.0117 C.2       2 UNK         0.4993 
     31 O          26.2098   -2.0669   -5.7827 O.2       2 UNK        -0.5286 
     32 CA         27.0021   -3.9997   -4.5961 C.3       2 UNK         0.0209 
     33 CB         28.2890   -3.8567   -5.4277 C.3       2 UNK        -0.1931 
     34 N          27.3426   -3.8823   -3.1778 N.am      2 UNK        -0.4546 
     35 C          26.6032   -4.3568   -2.1671 C.2       1 UNK         0.5154 
     36 O          25.5234   -4.9353   -2.3279 O.2       1 UNK        -0.5181 
     37 C          28.6312    1.3375   -6.2725 C.2       5 UNK         0.5014 
     38 O          28.4349    0.7267   -7.3225 O.2       5 UNK        -0.5248 
     39 N          29.3342    2.4772   -6.2079 N.am      6 UNK        -0.4434 
     40 CA         30.0276    3.1158   -7.3330 C.3       6 UNK         0.0363 
     41 CB         30.8101    4.3304   -6.8074 C.3       6 UNK        -0.1936 
     42 C          29.1233    3.5306   -8.5101 C.2       6 UNK         0.5081 
     43 O          29.6258    3.7150   -9.6186 O.2       6 UNK        -0.5248 
     44 N          27.8151    3.6732   -8.2610 N.am      7 UNK        -0.4718 
     45 CA         26.8093    3.9467   -9.2879 C.3       7 UNK         0.0273 
     46 CB         25.6340    4.6962   -8.6408 C.3       7 UNK        -0.1935 
     47 C          26.3223    2.6794  -10.0190 C.2       7 UNK         0.5018 
     48 O          25.6565    2.8181  -11.0461 O.2       7 UNK        -0.5186 
     49 N          26.6323    1.4848   -9.4924 N.am      8 UNK        -0.4240 
     50 CA         26.2013    0.1943  -10.0395 C.3       8 UNK         0.0235 
     51 CB         25.3446   -0.5377   -8.9918 C.3       8 UNK        -0.2000 
     52 C          27.3796   -0.6941  -10.4665 C.2       8 UNK         0.4941 
     53 O          27.2590   -1.3985  -11.4701 O.2       8 UNK        -0.5273 
     54 N          28.4753   -0.6741   -9.7002 N.am      9 UNK        -0.4262 
     55 CA         29.6379   -1.5456   -9.8521 C.3       9 UNK         0.0264 
     56 CB         29.6646   -2.5099   -8.6532 C.3       9 UNK        -0.1955 
     57 C          30.9340   -0.7271   -9.9408 C.2       9 UNK         0.5031 
     58 O          30.9334    0.4819   -9.7027 O.2       9 UNK        -0.5390 
     59 N          32.0314   -1.4190  -10.2739 N.am      10 UNK        -0.4204 
     60 CA         33.3642   -0.8638  -10.5431 C.3       10 UNK         0.0237 
     61 CB         34.2210   -1.9579  -11.2056 C.3       10 UNK        -0.1985 
     62 C          34.1054   -0.2487   -9.3362 C.2       10 UNK         0.4970 
     63 O          35.2168    0.2492   -9.5222 O.2       10 UNK        -0.4914 
     64 N          33.5112   -0.2854   -8.1364 N.am      11 UNK        -0.4285 
     65 CA         34.0616    0.3070   -6.9036 C.3       11 UNK         0.1007 
     66 C          34.1291    1.8643   -6.8943 C.2       11 UNK         0.5703 
     67 N          33.5370    2.5664   -7.8530 N.am      11 UNK        -0.7361 
     68 O          34.7431    2.4455   -6.0029 O.2       11 UNK        -0.4986 
     69 C69        33.3422   -0.2213   -5.6342 C.3       12 UNK        -0.0947 
     70 S70        33.4300   -2.0387   -5.4826 S.3       12 UNK        -0.2240 
     71 C71        31.6753   -2.4876   -5.3297 C.3       12 UNK         0.0194 
     72 H72        23.3795   -2.3663    0.7552 H         1 UNK         0.0906 
     73 H73        24.0618   -3.6613    1.7412 H         1 UNK         0.0906 
     74 H74        24.4589   -1.9791    2.0978 H         1 UNK         0.0906 
     75 H75        25.7044   -4.7344    0.6614 H         1 UNK         0.3140 
     76 H76        27.8038   -3.2825   -0.7579 H         1 UNK         0.1085 
     77 H77        28.4456   -5.1472    0.7253 H         1 UNK         0.0836 
     78 H78        27.3894   -6.2398   -0.1143 H         1 UNK         0.0836 
     79 H79        30.6915   -4.5112    0.1505 H         1 UNK         0.0731 
     80 H80        31.6923   -5.2744   -1.0547 H         1 UNK         0.0731 
     81 H81        31.5628   -4.4903   -3.4863 H         1 UNK         0.1312 
     82 H82        30.7071   -0.3228   -3.9818 H         1 UNK         0.1406 
     83 H83        29.8875   -2.2476   -0.2393 H         1 UNK         0.1631 
     84 H84        30.4016    0.9694   -1.6664 H         1 UNK         0.0717 
     85 H85        29.5934    0.0900   -0.4038 H         1 UNK         0.0717 
     86 H86        28.0443    2.5059   -3.6061 H         1 UNK         0.0934 
     87 H87        29.5674    1.6700   -3.6840 H         1 UNK         0.0934 
     88 H88        28.3724   -0.2512   -4.9138 H         1 UNK         0.0739 
     89 H89        26.2085   -0.2567   -5.1848 H         1 UNK         0.3093 
     90 H90        23.7333    1.7869   -4.4544 H         1 UNK         0.0818 
     91 H91        22.5176    1.8234   -6.6884 H         1 UNK         0.0819 
     92 H92        23.5774    3.1907   -6.4178 H         1 UNK         0.0819 
     93 H93        24.0875    1.8954   -7.4914 H         1 UNK         0.0819 
     94 H94        23.9258   -0.4444   -6.3778 H         1 UNK         0.3041 
     95 H95        22.7444   -2.6995   -4.0296 H         1 UNK         0.0784 
     96 H96        22.0772   -2.0163   -6.3612 H         1 UNK         0.0793 
     97 H97        23.7062   -2.3769   -6.9307 H         1 UNK         0.0793 
     98 H98        22.6910   -3.6555   -6.2849 H         1 UNK         0.0793 
     99 H99        24.6121   -3.8882   -3.7826 H         1 UNK         0.3024 
    100 H100       26.5986   -4.9983   -4.7801 H         1 UNK         0.1171 
    101 H101       28.0827   -4.0122   -6.4868 H         1 UNK         0.0786 
    102 H102       29.0397   -4.5899   -5.1323 H         1 UNK         0.0786 
    103 H103       28.7255   -2.8634   -5.3233 H         1 UNK         0.0786 
    104 H104       28.2165   -3.4203   -2.9659 H         1 UNK         0.2977 
    105 H105       29.4029    2.9509   -5.3194 H         1 UNK         0.3127 
    106 H106       30.7394    2.3880   -7.7261 H         1 UNK         0.0770 
    107 H107       30.1482    5.0774   -6.3677 H         1 UNK         0.0814 
    108 H108       31.3605    4.8184   -7.6130 H         1 UNK         0.0814 
    109 H109       31.5398    4.0376   -6.0520 H         1 UNK         0.0814 
    110 H110       27.4796    3.5162   -7.3190 H         1 UNK         0.2983 
    111 H111       27.2423    4.6017  -10.0476 H         1 UNK         0.0947 
    112 H112       24.8411    4.8909   -9.3645 H         1 UNK         0.0806 
    113 H113       25.9522    5.6604   -8.2441 H         1 UNK         0.0806 
    114 H114       25.1988    4.1279   -7.8208 H         1 UNK         0.0806 
    115 H115       27.2277    1.4504   -8.6705 H         1 UNK         0.3000 
    116 H116       25.5840    0.3425  -10.9280 H         1 UNK         0.0850 
    117 H117       25.0857   -1.5432   -9.3271 H         1 UNK         0.0810 
    118 H118       25.8707   -0.6367   -8.0415 H         1 UNK         0.0810 
    119 H119       24.4086   -0.0113   -8.8115 H         1 UNK         0.0810 
    120 H120       28.5123   -0.0530   -8.8922 H         1 UNK         0.3040 
    121 H121       29.5623   -2.1285  -10.7725 H         1 UNK         0.0766 
    122 H122       29.6188   -1.9675   -7.7093 H         1 UNK         0.0812 
    123 H123       30.5609   -3.1308   -8.6400 H         1 UNK         0.0812 
    124 H124       28.8086   -3.1838   -8.6832 H         1 UNK         0.0812 
    125 H125       31.9352   -2.4132  -10.4250 H         1 UNK         0.3205 
    126 H126       33.2362   -0.0549  -11.2655 H         1 UNK         0.0754 
    127 H127       35.2024   -1.5749  -11.4895 H         1 UNK         0.0769 
    128 H128       33.7527   -2.3345  -12.1153 H         1 UNK         0.0769 
    129 H129       34.3835   -2.8028  -10.5350 H         1 UNK         0.0769 
    130 H130       32.5906   -0.6890   -8.0677 H         1 UNK         0.2981 
    131 H131       35.1006   -0.0220   -6.8401 H         1 UNK         0.0541 
    132 H132       33.0327    2.0998   -8.5906 H         1 UNK         0.3459 
    133 H133       33.6098    3.5705   -7.8428 H         1 UNK         0.3459 
    134 H134       32.3028    0.1089   -5.6352 H         1 UNK         0.0612 
    135 H135       33.7926    0.1975   -4.7324 H         1 UNK         0.0612 
    136 H136       31.0709   -1.8412   -5.9649 H         1 UNK         0.0624 
    137 H137       31.5407   -3.5000   -5.7135 H         1 UNK         0.0624 
@<TRIPOS>BOND
     1    1    2 1    
     2    1   72 1    
     3    1   73 1    
     4    1   74 1    
     5    2    3 2    
     6    2    4 am   BACKBONE|DICT|INTERRES
     7    4    5 1    
     8    4   75 1    
     9    5    6 1    
    10    5   35 1    
    11    5   76 1    
    12    6    7 1    
    13    6   77 1    
    14    6   78 1    
    15    7    8 1    
    16    8    9 1    
    17    8   79 1    
    18    8   80 1    
    19    9   10 ar   
    20    9   14 ar   
    21   10   11 ar   
    22   10   81 1    
    23   11   12 ar   
    24   11   71 1    
    25   12   13 ar   
    26   12   82 1    
    27   13   14 ar   
    28   13   15 1    
    29   14   83 1    
    30   15   16 1    
    31   15   84 1    
    32   15   85 1    
    33   16   17 1    
    34   17   18 1    
    35   17   86 1    
    36   17   87 1    
    37   18   19 1    
    38   18   37 1    
    39   18   88 1    
    40   19   20 am   BACKBONE|DICT|INTERRES
    41   19   89 1    
    42   20   21 2    
    43   20   22 1    
    44   22   23 1    
    45   22   24 1    
    46   22   90 1    
    47   23   91 1    
    48   23   92 1    
    49   23   93 1    
    50   24   25 am   BACKBONE|DICT|INTERRES
    51   24   94 1    
    52   25   26 2    
    53   25   27 1    
    54   27   28 1    
    55   27   29 1    
    56   27   95 1    
    57   28   96 1    
    58   28   97 1    
    59   28   98 1    
    60   29   30 am   BACKBONE|DICT|INTERRES
    61   29   99 1    
    62   30   31 2    
    63   30   32 1    
    64   32   33 1    
    65   32   34 1    
    66   32  100 1    
    67   33  101 1    
    68   33  102 1    
    69   33  103 1    
    70   34   35 am   BACKBONE|DICT|INTERRES
    71   34  104 1    
    72   35   36 2    
    73   37   38 2    
    74   37   39 am   BACKBONE|DICT|INTERRES
    75   39   40 1    
    76   39  105 1    
    77   40   41 1    
    78   40   42 1    
    79   40  106 1    
    80   41  107 1    
    81   41  108 1    
    82   41  109 1    
    83   42   43 2    
    84   42   44 am   BACKBONE|DICT|INTERRES
    85   44   45 1    
    86   44  110 1    
    87   45   46 1    
    88   45   47 1    
    89   45  111 1    
    90   46  112 1    
    91   46  113 1    
    92   46  114 1    
    93   47   48 2    
    94   47   49 am   BACKBONE|DICT|INTERRES
    95   49   50 1    
    96   49  115 1    
    97   50   51 1    
    98   50   52 1    
    99   50  116 1    
   100   51  117 1    
   101   51  118 1    
   102   51  119 1    
   103   52   53 2    
   104   52   54 am   BACKBONE|DICT|INTERRES
   105   54   55 1    
   106   54  120 1    
   107   55   56 1    
   108   55   57 1    
   109   55  121 1    
   110   56  122 1    
   111   56  123 1    
   112   56  124 1    
   113   57   58 2    
   114   57   59 am   BACKBONE|DICT|INTERRES
   115   59   60 1    
   116   59  125 1    
   117   60   61 1    
   118   60   62 1    
   119   60  126 1    
   120   61  127 1    
   121   61  128 1    
   122   61  129 1    
   123   62   63 2    
   124   62   64 am   BACKBONE|DICT|INTERRES
   125   64   65 1    
   126   64  130 1    
   127   65   66 1    
   128   65   69 1    
   129   65  131 1    
   130   66   67 am   BACKBONE|DICT|INTERRES
   131   66   68 2    
   132   67  132 1    
   133   67  133 1    
   134   69   70 1    
   135   69  134 1    
   136   69  135 1    
   137   70   71 1    
   138   71  136 1    
   139   71  137 1    
@<TRIPOS>SUBSTRUCTURE
     1 UNK         1 GROUP             0       ****    0 ROOT    
