@<TRIPOS>MOLECULE
3R137
137   139    1
SMALL
USER_CHARGES


@<TRIPOS>ATOM
      1 CA         26.5221   -5.4475   -3.9423 C.3       0 UNK        -0.2020 
      2 C          25.8566   -5.8249   -2.6223 C.2       0 UNK         0.4855 
      3 O          24.9658   -6.6713   -2.6271 O.2       0 UNK        -0.5197 
      4 N          26.2388   -5.2577   -1.4681 N.am      1 UNK        -0.4892 
      5 CA         27.2143   -4.1848   -1.2278 C.3       1 UNK         0.0835 
      6 C6         28.6498   -4.4989   -1.7484 C.3       12 UNK        -0.0855 
      7 S7         29.9301   -3.9499   -0.5706 S.3       12 UNK        -0.2931 
      8 C8         31.3303   -3.5527   -1.6738 C.3       12 UNK         0.0378 
      9 C9         31.1332   -2.2737   -2.4825 C.ar      12 UNK        -0.0802 
     10 C10        31.4826   -2.2419   -3.8361 C.ar      12 UNK        -0.0944 
     11 C11        31.3187   -1.0725   -4.5943 C.ar      12 UNK        -0.0787 
     12 C12        30.7974    0.0679   -3.9762 C.ar      12 UNK        -0.0862 
     13 C13        30.4476    0.0518   -2.6249 C.ar      12 UNK        -0.0733 
     14 C14        30.6332   -1.1156   -1.8812 C.ar      12 UNK        -0.0832 
     15 C15        29.8536    1.2814   -1.9587 C.3       12 UNK         0.0240 
     16 S16        28.1038    0.9969   -1.5574 S.3       12 UNK        -0.2522 
     17 C17        27.2204    2.0688   -2.7347 C.3       12 UNK        -0.0967 
     18 CA         27.4204    1.7635   -4.2453 C.3       5 UNK         0.0660 
     19 N          27.3176    0.3442   -4.6033 N.am      5 UNK        -0.4015 
     20 C          27.5932   -0.1545   -5.8216 C.2       4 UNK         0.4946 
     21 O          28.0924    0.4997   -6.7401 O.2       4 UNK        -0.5353 
     22 CA         27.1899   -1.6119   -6.0919 C.3       4 UNK         0.0277 
     23 CB         28.3311   -2.5835   -5.7617 C.3       4 UNK        -0.1981 
     24 N          25.9861   -1.9863   -5.3501 N.am      4 UNK        -0.4209 
     25 C          24.7443   -1.6280   -5.7069 C.2       3 UNK         0.4942 
     26 O          24.4881   -0.9675   -6.7124 O.2       3 UNK        -0.5208 
     27 CA         23.5957   -2.0401   -4.7691 C.3       3 UNK         0.0250 
     28 CB         23.0671   -3.4334   -5.1446 C.3       3 UNK        -0.1990 
     29 N          23.9717   -2.0253   -3.3539 N.am      3 UNK        -0.4232 
     30 C          24.3499   -0.9294   -2.6814 C.2       2 UNK         0.4993 
     31 O          24.3689    0.1996   -3.1715 O.2       2 UNK        -0.5286 
     32 CA         24.8432   -1.1353   -1.2397 C.3       2 UNK         0.0209 
     33 CB         23.6737   -1.0090   -0.2508 C.3       2 UNK        -0.1931 
     34 N          25.5437   -2.4078   -1.0119 N.am      2 UNK        -0.4546 
     35 C          26.6397   -2.8213   -1.6684 C.2       1 UNK         0.5154 
     36 O          27.1240   -2.2124   -2.6232 O.2       1 UNK        -0.5181 
     37 C          26.4243    2.6058   -5.0662 C.2       5 UNK         0.5014 
     38 O          26.8210    3.6123   -5.6530 O.2       5 UNK        -0.5248 
     39 N          25.1556    2.1666   -5.0980 N.am      6 UNK        -0.4434 
     40 CA         24.0556    2.8054   -5.8257 C.3       6 UNK         0.0363 
     41 CB         22.7313    2.1113   -5.4700 C.3       6 UNK        -0.1936 
     42 C          24.2660    2.8257   -7.3483 C.2       6 UNK         0.5081 
     43 O          23.9908    3.8449   -7.9820 O.2       6 UNK        -0.5248 
     44 N          24.7734    1.7168   -7.9049 N.am      7 UNK        -0.4718 
     45 CA         25.1610    1.6039   -9.3143 C.3       7 UNK         0.0273 
     46 CB         25.3596    0.1203   -9.6648 C.3       7 UNK        -0.1935 
     47 C          26.4307    2.4006   -9.6670 C.2       7 UNK         0.5018 
     48 O          26.6350    2.6982  -10.8445 O.2       7 UNK        -0.5186 
     49 N          27.2582    2.7038   -8.6541 N.am      8 UNK        -0.4240 
     50 CA         28.5845    3.3256   -8.7285 C.3       8 UNK         0.0235 
     51 CB         28.4807    4.7953   -9.1880 C.3       8 UNK        -0.2000 
     52 C          29.5551    2.4840   -9.5776 C.2       8 UNK         0.4941 
     53 O          30.2126    3.0116  -10.4781 O.2       8 UNK        -0.5273 
     54 N          29.5847    1.1734   -9.2993 N.am      9 UNK        -0.4262 
     55 CA         30.3805    0.1891  -10.0335 C.3       9 UNK         0.0264 
     56 CB         29.8893   -1.2225   -9.6729 C.3       9 UNK        -0.1955 
     57 C          31.8897    0.3428   -9.7740 C.2       9 UNK         0.5031 
     58 O          32.2952    0.7720   -8.6908 O.2       9 UNK        -0.5390 
     59 N          32.7024   -0.0389  -10.7666 N.am      10 UNK        -0.4204 
     60 CA         34.1660    0.0027  -10.7177 C.3       10 UNK         0.0237 
     61 CB         34.7095    0.1393  -12.1530 C.3       10 UNK        -0.1985 
     62 C          34.7314   -1.2277   -9.9835 C.2       10 UNK         0.4970 
     63 O          35.3774   -2.0742  -10.6042 O.2       10 UNK        -0.4914 
     64 N          34.4484   -1.3182   -8.6793 N.am      11 UNK        -0.4285 
     65 CA         34.8469   -2.4379   -7.8072 C.3       11 UNK         0.1007 
     66 C          36.3620   -2.4871   -7.4523 C.2       11 UNK         0.5703 
     67 N          37.1426   -1.4443   -7.7109 N.am      11 UNK        -0.7361 
     68 O          36.8392   -3.4961   -6.9383 O.2       11 UNK        -0.4986 
     69 C69        33.9775   -2.5205   -6.5241 C.3       12 UNK        -0.0947 
     70 S70        32.1894   -2.5314   -6.8861 S.3       12 UNK        -0.2240 
     71 C71        31.6625   -0.9775   -6.0812 C.3       12 UNK         0.0194 
     72 H72        26.6805   -4.3781   -4.0318 H         1 UNK         0.0906 
     73 H73        27.4830   -5.9514   -4.0398 H         1 UNK         0.0906 
     74 H74        25.9006   -5.7554   -4.7828 H         1 UNK         0.0906 
     75 H75        25.7675   -5.5746   -0.6313 H         1 UNK         0.3140 
     76 H76        27.2732   -4.1285   -0.1391 H         1 UNK         0.1085 
     77 H77        28.8380   -4.0737   -2.7356 H         1 UNK         0.0836 
     78 H78        28.7834   -5.5757   -1.8621 H         1 UNK         0.0836 
     79 H79        31.5098   -4.4051   -2.3312 H         1 UNK         0.0731 
     80 H80        32.2289   -3.4382   -1.0665 H         1 UNK         0.0731 
     81 H81        31.8796   -3.1382   -4.2890 H         1 UNK         0.1312 
     82 H82        30.6531    0.9690   -4.5565 H         1 UNK         0.1406 
     83 H83        30.3616   -1.1264   -0.8345 H         1 UNK         0.1631 
     84 H84        29.9653    2.1676   -2.5848 H         1 UNK         0.0717 
     85 H85        30.3979    1.4879   -1.0361 H         1 UNK         0.0717 
     86 H86        26.1652    2.0046   -2.4632 H         1 UNK         0.0934 
     87 H87        27.5088    3.1011   -2.5264 H         1 UNK         0.0934 
     88 H88        28.4249    2.0870   -4.5236 H         1 UNK         0.0739 
     89 H89        26.9799   -0.2815   -3.8827 H         1 UNK         0.3093 
     90 H90        26.9774   -1.7033   -7.1592 H         1 UNK         0.0818 
     91 H91        28.6607   -2.4910   -4.7267 H         1 UNK         0.0819 
     92 H92        28.0390   -3.6186   -5.9355 H         1 UNK         0.0819 
     93 H93        29.1937   -2.3899   -6.3965 H         1 UNK         0.0819 
     94 H94        26.1331   -2.4226   -4.4483 H         1 UNK         0.3041 
     95 H95        22.7866   -1.3195   -4.9050 H         1 UNK         0.0784 
     96 H96        23.8222   -4.2070   -5.0015 H         1 UNK         0.0793 
     97 H97        22.7629   -3.4648   -6.1919 H         1 UNK         0.0793 
     98 H98        22.1947   -3.7010   -4.5482 H         1 UNK         0.0793 
     99 H99        23.9749   -2.9094   -2.8669 H         1 UNK         0.3024 
    100 H100       25.5516   -0.3323   -1.0299 H         1 UNK         0.1171 
    101 H101       24.0219   -1.0362    0.7819 H         1 UNK         0.0786 
    102 H102       23.1482   -0.0625   -0.3872 H         1 UNK         0.0786 
    103 H103       22.9438   -1.8090   -0.3818 H         1 UNK         0.0786 
    104 H104       25.1833   -2.9877   -0.2676 H         1 UNK         0.2977 
    105 H105       24.9098    1.3578   -4.5289 H         1 UNK         0.3127 
    106 H106       23.9983    3.8420   -5.4871 H         1 UNK         0.0770 
    107 H107       22.7324    1.0631   -5.7702 H         1 UNK         0.0814 
    108 H108       21.8909    2.5937   -5.9707 H         1 UNK         0.0814 
    109 H109       22.5374    2.1513   -4.3980 H         1 UNK         0.0814 
    110 H110       24.8878    0.8852   -7.3319 H         1 UNK         0.2983 
    111 H111       24.3465    1.9968   -9.9268 H         1 UNK         0.0947 
    112 H112       25.6189   -0.0030  -10.7172 H         1 UNK         0.0806 
    113 H113       24.4514   -0.4554   -9.4855 H         1 UNK         0.0806 
    114 H114       26.1619   -0.3268   -9.0765 H         1 UNK         0.0806 
    115 H115       26.9911    2.3858   -7.7309 H         1 UNK         0.3000 
    116 H116       28.9816    3.3222   -7.7120 H         1 UNK         0.0850 
    117 H117       29.4534    5.2866   -9.1430 H         1 UNK         0.0810 
    118 H118       27.8016    5.3604   -8.5494 H         1 UNK         0.0810 
    119 H119       28.1227    4.8766  -10.2147 H         1 UNK         0.0810 
    120 H120       29.0509    0.8397   -8.5016 H         1 UNK         0.3040 
    121 H121       30.2028    0.3488  -11.0994 H         1 UNK         0.0766 
    122 H122       28.8528   -1.3683   -9.9778 H         1 UNK         0.0812 
    123 H123       29.9465   -1.4108   -8.6022 H         1 UNK         0.0812 
    124 H124       30.4842   -1.9894  -10.1707 H         1 UNK         0.0812 
    125 H125       32.2941   -0.4195  -11.6087 H         1 UNK         0.3205 
    126 H126       34.4809    0.8885  -10.1613 H         1 UNK         0.0754 
    127 H127       34.3440    1.0491  -12.6296 H         1 UNK         0.0769 
    128 H128       34.4219   -0.7061  -12.7795 H         1 UNK         0.0769 
    129 H129       35.7993    0.1909  -12.1545 H         1 UNK         0.0769 
    130 H130       33.8619   -0.6028   -8.2654 H         1 UNK         0.2981 
    131 H131       34.6554   -3.3523   -8.3722 H         1 UNK         0.0541 
    132 H132       36.7613   -0.6122   -8.1308 H         1 UNK         0.3459 
    133 H133       38.1225   -1.4916   -7.4802 H         1 UNK         0.3459 
    134 H134       34.2138   -1.6965   -5.8486 H         1 UNK         0.0612 
    135 H135       34.2026   -3.4346   -5.9717 H         1 UNK         0.0612 
    136 H136       30.7863   -0.6026   -6.6100 H         1 UNK         0.0624 
    137 H137       32.4359   -0.2210   -6.2165 H         1 UNK         0.0624 
@<TRIPOS>BOND
     1    1    2 1    
     2    1   72 1    
     3    1   73 1    
     4    1   74 1    
     5    2    3 2    
     6    2    4 am   BACKBONE|DICT|INTERRES
     7    4    5 1    
     8    4   75 1    
     9    5    6 1    
    10    5   35 1    
    11    5   76 1    
    12    6    7 1    
    13    6   77 1    
    14    6   78 1    
    15    7    8 1    
    16    8    9 1    
    17    8   79 1    
    18    8   80 1    
    19    9   10 ar   
    20    9   14 ar   
    21   10   11 ar   
    22   10   81 1    
    23   11   12 ar   
    24   11   71 1    
    25   12   13 ar   
    26   12   82 1    
    27   13   14 ar   
    28   13   15 1    
    29   14   83 1    
    30   15   16 1    
    31   15   84 1    
    32   15   85 1    
    33   16   17 1    
    34   17   18 1    
    35   17   86 1    
    36   17   87 1    
    37   18   19 1    
    38   18   37 1    
    39   18   88 1    
    40   19   20 am   BACKBONE|DICT|INTERRES
    41   19   89 1    
    42   20   21 2    
    43   20   22 1    
    44   22   23 1    
    45   22   24 1    
    46   22   90 1    
    47   23   91 1    
    48   23   92 1    
    49   23   93 1    
    50   24   25 am   BACKBONE|DICT|INTERRES
    51   24   94 1    
    52   25   26 2    
    53   25   27 1    
    54   27   28 1    
    55   27   29 1    
    56   27   95 1    
    57   28   96 1    
    58   28   97 1    
    59   28   98 1    
    60   29   30 am   BACKBONE|DICT|INTERRES
    61   29   99 1    
    62   30   31 2    
    63   30   32 1    
    64   32   33 1    
    65   32   34 1    
    66   32  100 1    
    67   33  101 1    
    68   33  102 1    
    69   33  103 1    
    70   34   35 am   BACKBONE|DICT|INTERRES
    71   34  104 1    
    72   35   36 2    
    73   37   38 2    
    74   37   39 am   BACKBONE|DICT|INTERRES
    75   39   40 1    
    76   39  105 1    
    77   40   41 1    
    78   40   42 1    
    79   40  106 1    
    80   41  107 1    
    81   41  108 1    
    82   41  109 1    
    83   42   43 2    
    84   42   44 am   BACKBONE|DICT|INTERRES
    85   44   45 1    
    86   44  110 1    
    87   45   46 1    
    88   45   47 1    
    89   45  111 1    
    90   46  112 1    
    91   46  113 1    
    92   46  114 1    
    93   47   48 2    
    94   47   49 am   BACKBONE|DICT|INTERRES
    95   49   50 1    
    96   49  115 1    
    97   50   51 1    
    98   50   52 1    
    99   50  116 1    
   100   51  117 1    
   101   51  118 1    
   102   51  119 1    
   103   52   53 2    
   104   52   54 am   BACKBONE|DICT|INTERRES
   105   54   55 1    
   106   54  120 1    
   107   55   56 1    
   108   55   57 1    
   109   55  121 1    
   110   56  122 1    
   111   56  123 1    
   112   56  124 1    
   113   57   58 2    
   114   57   59 am   BACKBONE|DICT|INTERRES
   115   59   60 1    
   116   59  125 1    
   117   60   61 1    
   118   60   62 1    
   119   60  126 1    
   120   61  127 1    
   121   61  128 1    
   122   61  129 1    
   123   62   63 2    
   124   62   64 am   BACKBONE|DICT|INTERRES
   125   64   65 1    
   126   64  130 1    
   127   65   66 1    
   128   65   69 1    
   129   65  131 1    
   130   66   67 am   BACKBONE|DICT|INTERRES
   131   66   68 2    
   132   67  132 1    
   133   67  133 1    
   134   69   70 1    
   135   69  134 1    
   136   69  135 1    
   137   70   71 1    
   138   71  136 1    
   139   71  137 1    
@<TRIPOS>SUBSTRUCTURE
     1 UNK         1 GROUP             0       ****    0 ROOT    
