@<TRIPOS>MOLECULE
3R137
137   139    1
SMALL
USER_CHARGES


@<TRIPOS>ATOM
      1 CA         30.1144    1.1444   -2.0963 C.3       0 UNK        -0.2020 
      2 C          29.4810   -0.1969   -2.4335 C.2       0 UNK         0.4855 
      3 O          29.1179   -0.4236   -3.5840 O.2       0 UNK        -0.5197 
      4 N          29.3458   -1.0824   -1.4364 N.am      1 UNK        -0.4892 
      5 CA         28.7569   -2.4224   -1.5749 C.3       1 UNK         0.0835 
      6 C6         29.1481   -3.3083   -0.3610 C.3       12 UNK        -0.0855 
      7 S7         28.8893   -5.0973   -0.6221 S.3       12 UNK        -0.2931 
      8 C8         30.5317   -5.6414   -1.1978 C.3       12 UNK         0.0378 
      9 C9         30.9041   -5.0016   -2.5275 C.ar      12 UNK        -0.0802 
     10 C10        31.9766   -4.1075   -2.6081 C.ar      12 UNK        -0.0944 
     11 C11        32.2980   -3.4979   -3.8241 C.ar      12 UNK        -0.0787 
     12 C12        31.5312   -3.7774   -4.9595 C.ar      12 UNK        -0.0862 
     13 C13        30.4513   -4.6621   -4.8901 C.ar      12 UNK        -0.0733 
     14 C14        30.1567   -5.2867   -3.6748 C.ar      12 UNK        -0.0832 
     15 C15        29.6031   -4.9454   -6.1237 C.3       12 UNK         0.0240 
     16 S16        27.8744   -4.4068   -5.9097 S.3       12 UNK        -0.2522 
     17 C17        28.0421   -2.5911   -5.8413 C.3       12 UNK        -0.0967 
     18 CA         27.0561   -1.8863   -6.8022 C.3       5 UNK         0.0660 
     19 N          25.6680   -2.0394   -6.3668 N.am      5 UNK        -0.4015 
     20 C          24.6443   -2.3418   -7.1742 C.2       4 UNK         0.4946 
     21 O          24.7625   -2.5923   -8.3745 O.2       4 UNK        -0.5353 
     22 CA         23.2372   -2.3648   -6.5469 C.3       4 UNK         0.0277 
     23 CB         22.8768   -3.7890   -6.0945 C.3       4 UNK        -0.1981 
     24 N          23.0657   -1.4435   -5.4198 N.am      4 UNK        -0.4209 
     25 C          23.1978   -0.1114   -5.4884 C.2       3 UNK         0.4942 
     26 O          23.4777    0.4999   -6.5183 O.2       3 UNK        -0.5208 
     27 CA         23.0361    0.6730   -4.1759 C.3       3 UNK         0.0250 
     28 CB         21.5599    1.0384   -3.9528 C.3       3 UNK        -0.1990 
     29 N          23.5612    0.0068   -2.9754 N.am      3 UNK        -0.4232 
     30 C          24.7925   -0.5050   -2.8263 C.2       2 UNK         0.4993 
     31 O          25.6142   -0.5773   -3.7434 O.2       2 UNK        -0.5286 
     32 CA         25.1504   -0.9880   -1.4072 C.3       2 UNK         0.0209 
     33 CB         24.2306   -2.1375   -0.9391 C.3       2 UNK        -0.1931 
     34 N          26.5703   -1.3424   -1.2614 N.am      2 UNK        -0.4546 
     35 C          27.2275   -2.3802   -1.8056 C.2       1 UNK         0.5154 
     36 O          26.6884   -3.2678   -2.4682 O.2       1 UNK        -0.5181 
     37 C          27.3819   -0.3899   -6.9518 C.2       5 UNK         0.5014 
     38 O          27.9308    0.0037   -7.9822 O.2       5 UNK        -0.5248 
     39 N          27.0107    0.4255   -5.9523 N.am      6 UNK        -0.4434 
     40 CA         27.3265    1.8541   -5.8641 C.3       6 UNK         0.0363 
     41 CB         26.8461    2.4085   -4.5149 C.3       6 UNK        -0.1936 
     42 C          26.7808    2.7059   -7.0219 C.2       6 UNK         0.5081 
     43 O          27.4266    3.6872   -7.3892 O.2       6 UNK        -0.5248 
     44 N          25.6483    2.3064   -7.6214 N.am      7 UNK        -0.4718 
     45 CA         25.0792    2.9392   -8.8196 C.3       7 UNK         0.0273 
     46 CB         23.7014    2.3285   -9.1193 C.3       7 UNK        -0.1935 
     47 C          25.9825    2.8564  -10.0666 C.2       7 UNK         0.5018 
     48 O          25.8437    3.6926  -10.9599 O.2       7 UNK        -0.5186 
     49 N          26.8952    1.8763  -10.0985 N.am      8 UNK        -0.4240 
     50 CA         27.9203    1.7055  -11.1292 C.3       8 UNK         0.0235 
     51 CB         27.8646    0.2506  -11.6300 C.3       8 UNK        -0.2000 
     52 C          29.3233    2.0511  -10.5936 C.2       8 UNK         0.4941 
     53 O          30.3113    1.7183  -11.2516 O.2       8 UNK        -0.5273 
     54 N          29.4051    2.6659   -9.4015 N.am      9 UNK        -0.4262 
     55 CA         30.5936    2.9313   -8.5786 C.3       9 UNK         0.0264 
     56 CB         31.6086    3.8464   -9.2923 C.3       9 UNK        -0.1955 
     57 C          31.2525    1.6474   -8.0452 C.2       9 UNK         0.5031 
     58 O          31.3884    1.5051   -6.8300 O.2       9 UNK        -0.5390 
     59 N          31.6290    0.7457   -8.9628 N.am      10 UNK        -0.4204 
     60 CA         32.1574   -0.6153   -8.8015 C.3       10 UNK         0.0237 
     61 CB         31.1049   -1.5320   -8.1517 C.3       10 UNK        -0.1985 
     62 C          33.5080   -0.7337   -8.0726 C.2       10 UNK         0.4970 
     63 O          34.3962   -1.4265   -8.5703 O.2       10 UNK        -0.4914 
     64 N          33.6350   -0.0893   -6.9104 N.am      11 UNK        -0.4285 
     65 CA         34.7932   -0.1762   -6.0081 C.3       11 UNK         0.1007 
     66 C          36.0079    0.7032   -6.4233 C.2       11 UNK         0.5703 
     67 N          35.9027    1.5495   -7.4413 N.am      11 UNK        -0.7361 
     68 O          37.0716    0.6073   -5.8155 O.2       11 UNK        -0.4986 
     69 C69        34.3981    0.0681   -4.5235 C.3       12 UNK        -0.0947 
     70 S70        32.8918   -0.8158   -3.9905 S.3       12 UNK        -0.2240 
     71 C71        33.4715   -2.5361   -3.9232 C.3       12 UNK         0.0194 
     72 H72        30.4958    1.1724   -1.0783 H         1 UNK         0.0906 
     73 H73        30.9431    1.3449   -2.7720 H         1 UNK         0.0906 
     74 H74        29.3856    1.9435   -2.2101 H         1 UNK         0.0906 
     75 H75        29.6740   -0.8381   -0.5126 H         1 UNK         0.3140 
     76 H76        29.1877   -2.8602   -2.4774 H         1 UNK         0.1085 
     77 H77        30.2006   -3.1576   -0.1146 H         1 UNK         0.0836 
     78 H78        28.5933   -3.0056    0.5292 H         1 UNK         0.0836 
     79 H79        30.5251   -6.7261   -1.3133 H         1 UNK         0.0731 
     80 H80        31.2757   -5.4189   -0.4312 H         1 UNK         0.0731 
     81 H81        32.5578   -3.8806   -1.7248 H         1 UNK         0.1312 
     82 H82        31.7762   -3.2943   -5.8941 H         1 UNK         0.1406 
     83 H83        29.3181   -5.9676   -3.6127 H         1 UNK         0.1631 
     84 H84        29.6145   -6.0180   -6.3218 H         1 UNK         0.0717 
     85 H85        30.0214   -4.4656   -7.0098 H         1 UNK         0.0717 
     86 H86        27.8662   -2.2760   -4.8126 H         1 UNK         0.0934 
     87 H87        29.0721   -2.3146   -6.0691 H         1 UNK         0.0934 
     88 H88        27.1874   -2.3329   -7.7904 H         1 UNK         0.0739 
     89 H89        25.4790   -1.8094   -5.3972 H         1 UNK         0.3093 
     90 H90        22.5322   -2.0629   -7.3242 H         1 UNK         0.0818 
     91 H91        22.9688   -4.4953   -6.9209 H         1 UNK         0.0819 
     92 H92        23.5332   -4.1366   -5.2956 H         1 UNK         0.0819 
     93 H93        21.8488   -3.8454   -5.7362 H         1 UNK         0.0819 
     94 H94        22.8494   -1.8535   -4.5231 H         1 UNK         0.3041 
     95 H95        23.5929    1.6034   -4.2924 H         1 UNK         0.0784 
     96 H96        21.1480    1.5503   -4.8240 H         1 UNK         0.0793 
     97 H97        20.9467    0.1543   -3.7746 H         1 UNK         0.0793 
     98 H98        21.4400    1.7086   -3.1015 H         1 UNK         0.0793 
     99 H99        22.9520    0.0163   -2.1700 H         1 UNK         0.3024 
    100 H100       24.9908   -0.1380   -0.7416 H         1 UNK         0.1171 
    101 H101       24.5358   -2.5164    0.0363 H         1 UNK         0.0786 
    102 H102       23.1968   -1.8050   -0.8420 H         1 UNK         0.0786 
    103 H103       24.2335   -2.9747   -1.6377 H         1 UNK         0.0786 
    104 H104       27.1359   -0.6588   -0.7788 H         1 UNK         0.2977 
    105 H105       26.5647    0.0201   -5.1292 H         1 UNK         0.3127 
    106 H106       28.4157    1.9336   -5.8913 H         1 UNK         0.0770 
    107 H107       25.7614    2.3698   -4.4282 H         1 UNK         0.0814 
    108 H108       27.1476    3.4494   -4.3911 H         1 UNK         0.0814 
    109 H109       27.2685    1.8460   -3.6825 H         1 UNK         0.0814 
    110 H110       25.1422    1.5110   -7.2435 H         1 UNK         0.2983 
    111 H111       24.9405    3.9994   -8.5976 H         1 UNK         0.0947 
    112 H112       23.2596    2.7722  -10.0126 H         1 UNK         0.0806 
    113 H113       23.0056    2.5008   -8.2982 H         1 UNK         0.0806 
    114 H114       23.7654    1.2522   -9.2849 H         1 UNK         0.0806 
    115 H115       26.9665    1.2464   -9.3039 H         1 UNK         0.3000 
    116 H116       27.7297    2.3678  -11.9760 H         1 UNK         0.0850 
    117 H117       28.5716    0.0855  -12.4441 H         1 UNK         0.0810 
    118 H118       26.8737   -0.0002  -12.0090 H         1 UNK         0.0810 
    119 H119       28.1087   -0.4565  -10.8357 H         1 UNK         0.0810 
    120 H120       28.5324    2.9006   -8.9403 H         1 UNK         0.3040 
    121 H121       30.2259    3.4766   -7.7076 H         1 UNK         0.0766 
    122 H122       32.0445    3.3778  -10.1746 H         1 UNK         0.0812 
    123 H123       32.4320    4.1037   -8.6247 H         1 UNK         0.0812 
    124 H124       31.1433    4.7807   -9.6065 H         1 UNK         0.0812 
    125 H125       31.4221    1.0095   -9.9250 H         1 UNK         0.3205 
    126 H126       32.3209   -0.9802   -9.8168 H         1 UNK         0.0754 
    127 H127       30.8922   -1.2326   -7.1248 H         1 UNK         0.0769 
    128 H128       31.4481   -2.5667   -8.1329 H         1 UNK         0.0769 
    129 H129       30.1664   -1.5126   -8.7060 H         1 UNK         0.0769 
    130 H130       32.8491    0.4778   -6.5962 H         1 UNK         0.2981 
    131 H131       35.1644   -1.1999   -6.0704 H         1 UNK         0.0541 
    132 H132       35.0364    1.6284   -7.9483 H         1 UNK         0.3459 
    133 H133       36.6983    2.1095   -7.7038 H         1 UNK         0.3459 
    134 H134       34.2191    1.1317   -4.3557 H         1 UNK         0.0612 
    135 H135       35.2165   -0.2118   -3.8578 H         1 UNK         0.0612 
    136 H136       34.1491   -2.6558   -3.0765 H         1 UNK         0.0624 
    137 H137       34.0458   -2.7725   -4.8189 H         1 UNK         0.0624 
@<TRIPOS>BOND
     1    1    2 1    
     2    1   72 1    
     3    1   73 1    
     4    1   74 1    
     5    2    3 2    
     6    2    4 am   BACKBONE|DICT|INTERRES
     7    4    5 1    
     8    4   75 1    
     9    5    6 1    
    10    5   35 1    
    11    5   76 1    
    12    6    7 1    
    13    6   77 1    
    14    6   78 1    
    15    7    8 1    
    16    8    9 1    
    17    8   79 1    
    18    8   80 1    
    19    9   10 ar   
    20    9   14 ar   
    21   10   11 ar   
    22   10   81 1    
    23   11   12 ar   
    24   11   71 1    
    25   12   13 ar   
    26   12   82 1    
    27   13   14 ar   
    28   13   15 1    
    29   14   83 1    
    30   15   16 1    
    31   15   84 1    
    32   15   85 1    
    33   16   17 1    
    34   17   18 1    
    35   17   86 1    
    36   17   87 1    
    37   18   19 1    
    38   18   37 1    
    39   18   88 1    
    40   19   20 am   BACKBONE|DICT|INTERRES
    41   19   89 1    
    42   20   21 2    
    43   20   22 1    
    44   22   23 1    
    45   22   24 1    
    46   22   90 1    
    47   23   91 1    
    48   23   92 1    
    49   23   93 1    
    50   24   25 am   BACKBONE|DICT|INTERRES
    51   24   94 1    
    52   25   26 2    
    53   25   27 1    
    54   27   28 1    
    55   27   29 1    
    56   27   95 1    
    57   28   96 1    
    58   28   97 1    
    59   28   98 1    
    60   29   30 am   BACKBONE|DICT|INTERRES
    61   29   99 1    
    62   30   31 2    
    63   30   32 1    
    64   32   33 1    
    65   32   34 1    
    66   32  100 1    
    67   33  101 1    
    68   33  102 1    
    69   33  103 1    
    70   34   35 am   BACKBONE|DICT|INTERRES
    71   34  104 1    
    72   35   36 2    
    73   37   38 2    
    74   37   39 am   BACKBONE|DICT|INTERRES
    75   39   40 1    
    76   39  105 1    
    77   40   41 1    
    78   40   42 1    
    79   40  106 1    
    80   41  107 1    
    81   41  108 1    
    82   41  109 1    
    83   42   43 2    
    84   42   44 am   BACKBONE|DICT|INTERRES
    85   44   45 1    
    86   44  110 1    
    87   45   46 1    
    88   45   47 1    
    89   45  111 1    
    90   46  112 1    
    91   46  113 1    
    92   46  114 1    
    93   47   48 2    
    94   47   49 am   BACKBONE|DICT|INTERRES
    95   49   50 1    
    96   49  115 1    
    97   50   51 1    
    98   50   52 1    
    99   50  116 1    
   100   51  117 1    
   101   51  118 1    
   102   51  119 1    
   103   52   53 2    
   104   52   54 am   BACKBONE|DICT|INTERRES
   105   54   55 1    
   106   54  120 1    
   107   55   56 1    
   108   55   57 1    
   109   55  121 1    
   110   56  122 1    
   111   56  123 1    
   112   56  124 1    
   113   57   58 2    
   114   57   59 am   BACKBONE|DICT|INTERRES
   115   59   60 1    
   116   59  125 1    
   117   60   61 1    
   118   60   62 1    
   119   60  126 1    
   120   61  127 1    
   121   61  128 1    
   122   61  129 1    
   123   62   63 2    
   124   62   64 am   BACKBONE|DICT|INTERRES
   125   64   65 1    
   126   64  130 1    
   127   65   66 1    
   128   65   69 1    
   129   65  131 1    
   130   66   67 am   BACKBONE|DICT|INTERRES
   131   66   68 2    
   132   67  132 1    
   133   67  133 1    
   134   69   70 1    
   135   69  134 1    
   136   69  135 1    
   137   70   71 1    
   138   71  136 1    
   139   71  137 1    
@<TRIPOS>SUBSTRUCTURE
     1 UNK         1 GROUP             0       ****    0 ROOT    
