@<TRIPOS>MOLECULE
3R137
137   139    1
SMALL
USER_CHARGES


@<TRIPOS>ATOM
      1 CA         26.4929   -6.4383   -2.9826 C.3       0 UNK        -0.2020 
      2 C          26.2070   -5.2410   -2.0899 C.2       0 UNK         0.4855 
      3 O          25.0472   -4.9952   -1.7588 O.2       0 UNK        -0.5197 
      4 N          27.2559   -4.4950   -1.7140 N.am      1 UNK        -0.4892 
      5 CA         27.2589   -3.3113   -0.8414 C.3       1 UNK         0.0835 
      6 C6         28.6719   -2.6705   -0.7505 C.3       12 UNK        -0.0855 
      7 S7         30.0594   -3.8489   -0.5808 S.3       12 UNK        -0.2931 
      8 C8         31.5185   -2.7532   -0.7229 C.3       12 UNK         0.0378 
      9 C9         31.3986   -1.7457   -1.8621 C.ar      12 UNK        -0.0802 
     10 C10        31.5481   -2.1503   -3.1917 C.ar      12 UNK        -0.0944 
     11 C11        31.3751   -1.2341   -4.2349 C.ar      12 UNK        -0.0787 
     12 C12        31.0667    0.0975   -3.9400 C.ar      12 UNK        -0.0862 
     13 C13        30.9048    0.5145   -2.6137 C.ar      12 UNK        -0.0733 
     14 C14        31.0861   -0.4116   -1.5821 C.ar      12 UNK        -0.0832 
     15 C15        30.5381    1.9561   -2.2641 C.3       12 UNK         0.0240 
     16 S16        29.2530    2.7068   -3.3248 S.3       12 UNK        -0.2522 
     17 C17        27.8997    1.4766   -3.2986 C.3       12 UNK        -0.0967 
     18 CA         27.6200    0.9323   -4.7258 C.3       5 UNK         0.0660 
     19 N          27.3134   -0.5024   -4.7309 N.am      5 UNK        -0.4015 
     20 C          27.3942   -1.2959   -5.8092 C.2       4 UNK         0.4946 
     21 O          27.6905   -0.8898   -6.9326 O.2       4 UNK        -0.5353 
     22 CA         27.0342   -2.7726   -5.6133 C.3       4 UNK         0.0277 
     23 CB         28.1765   -3.5187   -4.9059 C.3       4 UNK        -0.1981 
     24 N          25.7857   -2.9279   -4.8619 N.am      4 UNK        -0.4209 
     25 C          24.5648   -2.9249   -5.4177 C.2       3 UNK         0.4942 
     26 O          24.3688   -2.7703   -6.6228 O.2       3 UNK        -0.5208 
     27 CA         23.3526   -3.1461   -4.4944 C.3       3 UNK         0.0250 
     28 CB         22.8982   -4.6137   -4.5523 C.3       3 UNK        -0.1990 
     29 N          23.6190   -2.7808   -3.1017 N.am      3 UNK        -0.4232 
     30 C          23.5173   -1.5337   -2.6188 C.2       2 UNK         0.4993 
     31 O          23.1264   -0.5733   -3.2828 O.2       2 UNK        -0.5286 
     32 CA         23.9629   -1.3064   -1.1594 C.3       2 UNK         0.0209 
     33 CB         22.7713   -1.4651   -0.2016 C.3       2 UNK        -0.1931 
     34 N          25.0590   -2.1834   -0.7246 N.am      2 UNK        -0.4546 
     35 C          26.2519   -2.2490   -1.3304 C.2       1 UNK         0.5154 
     36 O          26.5479   -1.5523   -2.3032 O.2       1 UNK        -0.5181 
     37 C          26.5840    1.7827   -5.4964 C.2       5 UNK         0.5014 
     38 O          26.8357    2.9611   -5.7469 O.2       5 UNK        -0.5248 
     39 N          25.4752    1.1714   -5.9405 N.am      6 UNK        -0.4434 
     40 CA         24.5568    1.7248   -6.9398 C.3       6 UNK         0.0363 
     41 CB         23.3581    0.7767   -7.1004 C.3       6 UNK        -0.1936 
     42 C          25.2316    1.9833   -8.3049 C.2       6 UNK         0.5081 
     43 O          24.7863    2.8686   -9.0347 O.2       6 UNK        -0.5248 
     44 N          26.3090    1.2426   -8.6094 N.am      7 UNK        -0.4718 
     45 CA         27.1818    1.4584   -9.7672 C.3       7 UNK         0.0273 
     46 CB         27.6770    0.0907  -10.2676 C.3       7 UNK        -0.1935 
     47 C          28.3707    2.3903   -9.4490 C.2       7 UNK         0.5018 
     48 O          29.2443    2.5575  -10.3021 O.2       7 UNK        -0.5186 
     49 N          28.4060    2.9719   -8.2392 N.am      8 UNK        -0.4240 
     50 CA         29.4736    3.8124   -7.6913 C.3       8 UNK         0.0235 
     51 CB         29.5149    5.1806   -8.4115 C.3       8 UNK        -0.2000 
     52 C          30.8145    3.0554   -7.6649 C.2       8 UNK         0.4941 
     53 O          30.8850    1.9863   -7.0592 O.2       8 UNK        -0.5273 
     54 N          31.8432    3.6062   -8.3211 N.am      9 UNK        -0.4262 
     55 CA         33.1814    3.0216   -8.4189 C.3       9 UNK         0.0264 
     56 CB         34.1737    4.1193   -8.8380 C.3       9 UNK        -0.1955 
     57 C          33.2767    1.8180   -9.3755 C.2       9 UNK         0.5031 
     58 O          34.2796    1.1029   -9.3231 O.2       9 UNK        -0.5390 
     59 N          32.2707    1.5994  -10.2371 N.am      10 UNK        -0.4204 
     60 CA         32.2387    0.5010  -11.2076 C.3       10 UNK         0.0237 
     61 CB         31.3587    0.8975  -12.4077 C.3       10 UNK        -0.1985 
     62 C          31.7972   -0.8186  -10.5472 C.2       10 UNK         0.4970 
     63 O          30.7531   -1.3698  -10.8986 O.2       10 UNK        -0.4914 
     64 N          32.6065   -1.2956   -9.5946 N.am      11 UNK        -0.4285 
     65 CA         32.3983   -2.5457   -8.8477 C.3       11 UNK         0.1007 
     66 C          32.5343   -3.8467   -9.6930 C.2       11 UNK         0.5703 
     67 N          33.1174   -3.8116  -10.8859 N.am      11 UNK        -0.7361 
     68 O          32.0977   -4.9088   -9.2560 O.2       11 UNK        -0.4986 
     69 C69        33.3062   -2.6217   -7.5911 C.3       12 UNK        -0.0947 
     70 S70        33.0753   -1.2397   -6.4232 S.3       12 UNK        -0.2240 
     71 C71        31.4794   -1.6932   -5.6805 C.3       12 UNK         0.0194 
     72 H72        27.5620   -6.6073   -3.1095 H         1 UNK         0.0906 
     73 H73        26.0582   -7.3393   -2.5506 H         1 UNK         0.0906 
     74 H74        26.0523   -6.2861   -3.9674 H         1 UNK         0.0906 
     75 H75        28.1814   -4.7741   -2.0097 H         1 UNK         0.3140 
     76 H76        26.9659   -3.6413    0.1571 H         1 UNK         0.1085 
     77 H77        28.7133   -1.9593    0.0766 H         1 UNK         0.0836 
     78 H78        28.8670   -2.0941   -1.6547 H         1 UNK         0.0836 
     79 H79        32.4087   -3.3661   -0.8715 H         1 UNK         0.0731 
     80 H80        31.6623   -2.2372    0.2277 H         1 UNK         0.0731 
     81 H81        31.7732   -3.1848   -3.4123 H         1 UNK         0.1312 
     82 H82        30.9358    0.8043   -4.7475 H         1 UNK         0.1406 
     83 H83        30.9599   -0.0993   -0.5541 H         1 UNK         0.1631 
     84 H84        31.4390    2.5677   -2.3255 H         1 UNK         0.0717 
     85 H85        30.1942    2.0205   -1.2306 H         1 UNK         0.0717 
     86 H86        28.1796    0.6659   -2.6245 H         1 UNK         0.0934 
     87 H87        27.0093    1.9249   -2.8532 H         1 UNK         0.0934 
     88 H88        28.5424    1.0221   -5.3049 H         1 UNK         0.0739 
     89 H89        27.0376   -0.9066   -3.8349 H         1 UNK         0.3093 
     90 H90        26.9118   -3.2203   -6.6024 H         1 UNK         0.0818 
     91 H91        28.4047   -3.0916   -3.9291 H         1 UNK         0.0819 
     92 H92        27.9390   -4.5730   -4.7718 H         1 UNK         0.0819 
     93 H93        29.0885   -3.4732   -5.5002 H         1 UNK         0.0819 
     94 H94        25.8597   -2.9708   -3.8547 H         1 UNK         0.3041 
     95 H95        22.5358   -2.5282   -4.8745 H         1 UNK         0.0784 
     96 H96        22.6593   -4.9086   -5.5751 H         1 UNK         0.0793 
     97 H97        23.6700   -5.2927   -4.1892 H         1 UNK         0.0793 
     98 H98        22.0023   -4.7745   -3.9523 H         1 UNK         0.0793 
     99 H99        23.9668   -3.5170   -2.4917 H         1 UNK         0.3024 
    100 H100       24.3223   -0.2768   -1.0940 H         1 UNK         0.1171 
    101 H101       23.0463   -1.2069    0.8212 H         1 UNK         0.0786 
    102 H102       21.9490   -0.8084   -0.4895 H         1 UNK         0.0786 
    103 H103       22.3880   -2.4864   -0.2002 H         1 UNK         0.0786 
    104 H104       24.8567   -2.8275    0.0270 H         1 UNK         0.2977 
    105 H105       25.3304    0.2067   -5.6812 H         1 UNK         0.3127 
    106 H106       24.1928    2.6832   -6.5639 H         1 UNK         0.0770 
    107 H107       23.6634   -0.1984   -7.4823 H         1 UNK         0.0814 
    108 H108       22.6287    1.1866   -7.8003 H         1 UNK         0.0814 
    109 H109       22.8441    0.6197   -6.1515 H         1 UNK         0.0814 
    110 H110       26.6198    0.5290   -7.9557 H         1 UNK         0.2983 
    111 H111       26.6130    1.9277  -10.5727 H         1 UNK         0.0947 
    112 H112       28.2449    0.1924  -11.1927 H         1 UNK         0.0806 
    113 H113       26.8462   -0.5841  -10.4733 H         1 UNK         0.0806 
    114 H114       28.3302   -0.3927   -9.5397 H         1 UNK         0.0806 
    115 H115       27.6523    2.7762   -7.5900 H         1 UNK         0.3000 
    116 H116       29.2148    3.9971   -6.6474 H         1 UNK         0.0850 
    117 H117       30.2434    5.8493   -7.9511 H         1 UNK         0.0810 
    118 H118       28.5475    5.6792   -8.3482 H         1 UNK         0.0810 
    119 H119       29.7639    5.0878   -9.4692 H         1 UNK         0.0810 
    120 H120       31.6902    4.4786   -8.8064 H         1 UNK         0.3040 
    121 H121       33.4690    2.6638   -7.4277 H         1 UNK         0.0766 
    122 H122       34.1781    4.9446   -8.1258 H         1 UNK         0.0812 
    123 H123       33.9366    4.5242   -9.8227 H         1 UNK         0.0812 
    124 H124       35.1916    3.7293   -8.8834 H         1 UNK         0.0812 
    125 H125       31.4383    2.1760  -10.1824 H         1 UNK         0.3205 
    126 H126       33.2484    0.3431  -11.5932 H         1 UNK         0.0754 
    127 H127       31.3747    0.1218  -13.1742 H         1 UNK         0.0769 
    128 H128       31.7118    1.8184  -12.8719 H         1 UNK         0.0769 
    129 H129       30.3186    1.0456  -12.1204 H         1 UNK         0.0769 
    130 H130       33.4210   -0.7455   -9.3429 H         1 UNK         0.2981 
    131 H131       31.3628   -2.5318   -8.5027 H         1 UNK         0.0541 
    132 H132       33.4820   -2.9475  -11.2524 H         1 UNK         0.3459 
    133 H133       33.1947   -4.6612  -11.4224 H         1 UNK         0.3459 
    134 H134       33.1432   -3.5543   -7.0472 H         1 UNK         0.0612 
    135 H135       34.3560   -2.6309   -7.8896 H         1 UNK         0.0612 
    136 H136       31.3430   -2.7737   -5.7345 H         1 UNK         0.0624 
    137 H137       30.6743   -1.2509   -6.2702 H         1 UNK         0.0624 
@<TRIPOS>BOND
     1    1    2 1    
     2    1   72 1    
     3    1   73 1    
     4    1   74 1    
     5    2    3 2    
     6    2    4 am   BACKBONE|DICT|INTERRES
     7    4    5 1    
     8    4   75 1    
     9    5    6 1    
    10    5   35 1    
    11    5   76 1    
    12    6    7 1    
    13    6   77 1    
    14    6   78 1    
    15    7    8 1    
    16    8    9 1    
    17    8   79 1    
    18    8   80 1    
    19    9   10 ar   
    20    9   14 ar   
    21   10   11 ar   
    22   10   81 1    
    23   11   12 ar   
    24   11   71 1    
    25   12   13 ar   
    26   12   82 1    
    27   13   14 ar   
    28   13   15 1    
    29   14   83 1    
    30   15   16 1    
    31   15   84 1    
    32   15   85 1    
    33   16   17 1    
    34   17   18 1    
    35   17   86 1    
    36   17   87 1    
    37   18   19 1    
    38   18   37 1    
    39   18   88 1    
    40   19   20 am   BACKBONE|DICT|INTERRES
    41   19   89 1    
    42   20   21 2    
    43   20   22 1    
    44   22   23 1    
    45   22   24 1    
    46   22   90 1    
    47   23   91 1    
    48   23   92 1    
    49   23   93 1    
    50   24   25 am   BACKBONE|DICT|INTERRES
    51   24   94 1    
    52   25   26 2    
    53   25   27 1    
    54   27   28 1    
    55   27   29 1    
    56   27   95 1    
    57   28   96 1    
    58   28   97 1    
    59   28   98 1    
    60   29   30 am   BACKBONE|DICT|INTERRES
    61   29   99 1    
    62   30   31 2    
    63   30   32 1    
    64   32   33 1    
    65   32   34 1    
    66   32  100 1    
    67   33  101 1    
    68   33  102 1    
    69   33  103 1    
    70   34   35 am   BACKBONE|DICT|INTERRES
    71   34  104 1    
    72   35   36 2    
    73   37   38 2    
    74   37   39 am   BACKBONE|DICT|INTERRES
    75   39   40 1    
    76   39  105 1    
    77   40   41 1    
    78   40   42 1    
    79   40  106 1    
    80   41  107 1    
    81   41  108 1    
    82   41  109 1    
    83   42   43 2    
    84   42   44 am   BACKBONE|DICT|INTERRES
    85   44   45 1    
    86   44  110 1    
    87   45   46 1    
    88   45   47 1    
    89   45  111 1    
    90   46  112 1    
    91   46  113 1    
    92   46  114 1    
    93   47   48 2    
    94   47   49 am   BACKBONE|DICT|INTERRES
    95   49   50 1    
    96   49  115 1    
    97   50   51 1    
    98   50   52 1    
    99   50  116 1    
   100   51  117 1    
   101   51  118 1    
   102   51  119 1    
   103   52   53 2    
   104   52   54 am   BACKBONE|DICT|INTERRES
   105   54   55 1    
   106   54  120 1    
   107   55   56 1    
   108   55   57 1    
   109   55  121 1    
   110   56  122 1    
   111   56  123 1    
   112   56  124 1    
   113   57   58 2    
   114   57   59 am   BACKBONE|DICT|INTERRES
   115   59   60 1    
   116   59  125 1    
   117   60   61 1    
   118   60   62 1    
   119   60  126 1    
   120   61  127 1    
   121   61  128 1    
   122   61  129 1    
   123   62   63 2    
   124   62   64 am   BACKBONE|DICT|INTERRES
   125   64   65 1    
   126   64  130 1    
   127   65   66 1    
   128   65   69 1    
   129   65  131 1    
   130   66   67 am   BACKBONE|DICT|INTERRES
   131   66   68 2    
   132   67  132 1    
   133   67  133 1    
   134   69   70 1    
   135   69  134 1    
   136   69  135 1    
   137   70   71 1    
   138   71  136 1    
   139   71  137 1    
@<TRIPOS>SUBSTRUCTURE
     1 UNK         1 GROUP             0       ****    0 ROOT    
