@<TRIPOS>MOLECULE
3R137
137   139    1
SMALL
USER_CHARGES


@<TRIPOS>ATOM
      1 CA         22.4104   -4.5397   -3.7318 C.3       0 UNK        -0.2020 
      2 C          23.6290   -4.7510   -2.8469 C.2       0 UNK         0.4855 
      3 O          23.6276   -5.6399   -1.9950 O.2       0 UNK        -0.5197 
      4 N          24.6632   -3.9208   -3.0166 N.am      1 UNK        -0.4892 
      5 CA         25.9166   -3.9390   -2.2588 C.3       1 UNK         0.0835 
      6 C6         27.0891   -3.4263   -3.1372 C.3       12 UNK        -0.0855 
      7 S7         28.6903   -4.1358   -2.6368 S.3       12 UNK        -0.2931 
      8 C8         29.5596   -2.6768   -1.9772 C.3       12 UNK         0.0378 
      9 C9         30.0651   -1.7501   -3.0758 C.ar      12 UNK        -0.0802 
     10 C10        31.0311   -2.2052   -3.9797 C.ar      12 UNK        -0.0944 
     11 C11        31.5541   -1.3481   -4.9505 C.ar      12 UNK        -0.0787 
     12 C12        31.0929   -0.0322   -5.0244 C.ar      12 UNK        -0.0862 
     13 C13        30.1344    0.4415   -4.1243 C.ar      12 UNK        -0.0733 
     14 C14        29.6212   -0.4240   -3.1510 C.ar      12 UNK        -0.0832 
     15 C15        29.7072    1.9053   -4.1846 C.3       12 UNK         0.0240 
     16 S16        27.9251    2.1452   -4.4820 S.3       12 UNK        -0.2522 
     17 C17        27.6185    1.0874   -5.9357 C.3       12 UNK        -0.0967 
     18 CA         26.7024   -0.0961   -5.5443 C.3       5 UNK         0.0660 
     19 N          25.3455    0.3635   -5.2273 N.am      5 UNK        -0.4015 
     20 C          24.3686   -0.3922   -4.7135 C.2       4 UNK         0.4946 
     21 O          24.4861   -1.5910   -4.4498 O.2       4 UNK        -0.5353 
     22 CA         23.0170    0.3047   -4.4830 C.3       4 UNK         0.0277 
     23 CB         22.1221    0.1526   -5.7238 C.3       4 UNK        -0.1981 
     24 N          22.3160   -0.2451   -3.3201 N.am      4 UNK        -0.4209 
     25 C          22.6998   -0.0794   -2.0468 C.2       3 UNK         0.4942 
     26 O          23.6480    0.6311   -1.7094 O.2       3 UNK        -0.5208 
     27 CA         21.9022   -0.8237   -0.9616 C.3       3 UNK         0.0250 
     28 CB         20.5977   -1.4762   -1.4667 C.3       3 UNK        -0.1990 
     29 N          22.7618   -1.8588   -0.3947 N.am      3 UNK        -0.4232 
     30 C          23.3850   -1.8055    0.7899 C.2       2 UNK         0.4993 
     31 O          23.2267   -0.9044    1.6148 O.2       2 UNK        -0.5286 
     32 CA         24.3491   -2.9637    1.1161 C.3       2 UNK         0.0209 
     33 CB         23.6719   -3.9836    2.0462 C.3       2 UNK        -0.1931 
     34 N          24.8320   -3.6564   -0.0838 N.am      2 UNK        -0.4546 
     35 C          25.7250   -3.1499   -0.9455 C.2       1 UNK         0.5154 
     36 O          26.3156   -2.0859   -0.7549 O.2       1 UNK        -0.5181 
     37 C          26.7081   -1.1819   -6.6362 C.2       5 UNK         0.5014 
     38 O          25.8619   -1.1573   -7.5338 O.2       5 UNK        -0.5248 
     39 N          27.6805   -2.1009   -6.5427 N.am      6 UNK        -0.4434 
     40 CA         27.8476   -3.2350   -7.4572 C.3       6 UNK         0.0363 
     41 CB         28.9115   -4.1905   -6.8930 C.3       6 UNK        -0.1936 
     42 C          28.1868   -2.8212   -8.9014 C.2       6 UNK         0.5081 
     43 O          27.7818   -3.5116   -9.8375 O.2       6 UNK        -0.5248 
     44 N          28.8897   -1.6950   -9.0564 N.am      7 UNK        -0.4718 
     45 CA         29.1954   -1.0364  -10.3203 C.3       7 UNK         0.0273 
     46 CB         30.3286   -1.7752  -11.0580 C.3       7 UNK        -0.1935 
     47 C          29.5535    0.4275  -10.0321 C.2       7 UNK         0.5018 
     48 O          29.8677    0.7735   -8.8886 O.2       7 UNK        -0.5186 
     49 N          29.4852    1.2612  -11.0765 N.am      8 UNK        -0.4240 
     50 CA         29.8109    2.6886  -11.0348 C.3       8 UNK         0.0235 
     51 CB         29.3029    3.3465  -12.3295 C.3       8 UNK        -0.2000 
     52 C          31.3182    2.9439  -10.8580 C.2       8 UNK         0.4941 
     53 O          32.1290    2.0502  -11.1131 O.2       8 UNK        -0.5273 
     54 N          31.6566    4.1747  -10.4423 N.am      9 UNK        -0.4262 
     55 CA         33.0171    4.6996  -10.2444 C.3       9 UNK         0.0264 
     56 CB         33.7257    4.8844  -11.6038 C.3       9 UNK        -0.1955 
     57 C          33.8456    3.8626   -9.2494 C.2       9 UNK         0.5031 
     58 O          35.0030    3.5385   -9.5251 O.2       9 UNK        -0.5390 
     59 N          33.2089    3.4876   -8.1281 N.am      10 UNK        -0.4204 
     60 CA         33.7309    2.6171   -7.0636 C.3       10 UNK         0.0237 
     61 CB         34.8297    3.3441   -6.2591 C.3       10 UNK        -0.1985 
     62 C          34.1828    1.2315   -7.5752 C.2       10 UNK         0.4970 
     63 O          35.1416    0.6660   -7.0472 O.2       10 UNK        -0.4914 
     64 N          33.4902    0.7281   -8.6057 N.am      11 UNK        -0.4285 
     65 CA         33.7931   -0.5026   -9.3521 C.3       11 UNK         0.1007 
     66 C          35.1027   -0.4392  -10.1973 C.2       11 UNK         0.5703 
     67 N          35.7018    0.7254  -10.4230 N.am      11 UNK        -0.7361 
     68 O          35.5738   -1.4626  -10.6886 O.2       11 UNK        -0.4986 
     69 C69        33.6871   -1.8022   -8.4975 C.3       12 UNK        -0.0947 
     70 S70        32.1039   -1.9471   -7.5988 S.3       12 UNK        -0.2240 
     71 C71        32.6671   -1.8109   -5.8769 C.3       12 UNK         0.0194 
     72 H72        22.4856   -3.6207   -4.3135 H         1 UNK         0.0906 
     73 H73        22.3043   -5.3732   -4.4254 H         1 UNK         0.0906 
     74 H74        21.5072   -4.4861   -3.1250 H         1 UNK         0.0906 
     75 H75        24.5760   -3.1375   -3.6696 H         1 UNK         0.3140 
     76 H76        26.1302   -4.9750   -1.9842 H         1 UNK         0.1085 
     77 H77        27.1338   -2.3371   -3.1634 H         1 UNK         0.0836 
     78 H78        26.9338   -3.7330   -4.1727 H         1 UNK         0.0836 
     79 H79        30.4140   -3.0187   -1.3914 H         1 UNK         0.0731 
     80 H80        28.9105   -2.1453   -1.2805 H         1 UNK         0.0731 
     81 H81        31.3919   -3.2224   -3.9078 H         1 UNK         0.1312 
     82 H82        31.5015    0.6273   -5.7765 H         1 UNK         0.1406 
     83 H83        28.8897   -0.0567   -2.4432 H         1 UNK         0.1631 
     84 H84        30.2568    2.4358   -4.9639 H         1 UNK         0.0717 
     85 H85        29.9727    2.3895   -3.2440 H         1 UNK         0.0717 
     86 H86        27.1643    1.6882   -6.7260 H         1 UNK         0.0934 
     87 H87        28.5711    0.7424   -6.3423 H         1 UNK         0.0934 
     88 H88        27.0985   -0.5526   -4.6360 H         1 UNK         0.0739 
     89 H89        25.1541    1.3328   -5.4318 H         1 UNK         0.3093 
     90 H90        23.1927    1.3678   -4.3034 H         1 UNK         0.0818 
     91 H91        22.6020    0.5768   -6.6069 H         1 UNK         0.0819 
     92 H92        21.9107   -0.8952   -5.9424 H         1 UNK         0.0819 
     93 H93        21.1706    0.6688   -5.5947 H         1 UNK         0.0819 
     94 H94        21.5367   -0.8566   -3.5116 H         1 UNK         0.3041 
     95 H95        21.6367   -0.0881   -0.1993 H         1 UNK         0.0784 
     96 H96        19.9299   -0.7349   -1.9082 H         1 UNK         0.0793 
     97 H97        20.7798   -2.2522   -2.2105 H         1 UNK         0.0793 
     98 H98        20.0537   -1.9384   -0.6426 H         1 UNK         0.0793 
     99 H99        23.0001   -2.6250   -1.0060 H         1 UNK         0.3024 
    100 H100       25.2076   -2.5347    1.6386 H         1 UNK         0.1171 
    101 H101       22.8089   -4.4527    1.5719 H         1 UNK         0.0786 
    102 H102       24.3641   -4.7726    2.3408 H         1 UNK         0.0786 
    103 H103       23.3208   -3.5043    2.9613 H         1 UNK         0.0786 
    104 H104       24.3712   -4.5238   -0.3388 H         1 UNK         0.2977 
    105 H105       28.3530   -2.0299   -5.7917 H         1 UNK         0.3127 
    106 H106       26.8969   -3.7715   -7.4918 H         1 UNK         0.0770 
    107 H107       29.8742   -3.6959   -6.7667 H         1 UNK         0.0814 
    108 H108       29.0665   -5.0401   -7.5593 H         1 UNK         0.0814 
    109 H109       28.6134   -4.5910   -5.9240 H         1 UNK         0.0814 
    110 H110       29.1869   -1.1724   -8.2413 H         1 UNK         0.2983 
    111 H111       28.2967   -1.0422  -10.9411 H         1 UNK         0.0947 
    112 H112       30.6622   -1.2228  -11.9372 H         1 UNK         0.0806 
    113 H113       30.0012   -2.7567  -11.4008 H         1 UNK         0.0806 
    114 H114       31.1945   -1.9260  -10.4165 H         1 UNK         0.0806 
    115 H115       29.2544    0.8828  -11.9834 H         1 UNK         0.3000 
    116 H116       29.2864    3.1300  -10.1843 H         1 UNK         0.0850 
    117 H117       29.8018    2.9399  -13.2105 H         1 UNK         0.0810 
    118 H118       29.4809    4.4226  -12.3242 H         1 UNK         0.0810 
    119 H119       28.2296    3.2011  -12.4546 H         1 UNK         0.0810 
    120 H120       30.9107    4.8325  -10.2589 H         1 UNK         0.3040 
    121 H121       32.9087    5.6872   -9.7934 H         1 UNK         0.0766 
    122 H122       33.9064    3.9293  -12.0986 H         1 UNK         0.0812 
    123 H123       33.1359    5.5050  -12.2782 H         1 UNK         0.0812 
    124 H124       34.6929    5.3727  -11.4780 H         1 UNK         0.0812 
    125 H125       32.2520    3.7930   -8.0133 H         1 UNK         0.3205 
    126 H126       32.8981    2.4322   -6.3847 H         1 UNK         0.0754 
    127 H127       35.1302    2.7600   -5.3883 H         1 UNK         0.0769 
    128 H128       34.4809    4.3100   -5.8937 H         1 UNK         0.0769 
    129 H129       35.7234    3.5156   -6.8601 H         1 UNK         0.0769 
    130 H130       32.7452    1.2829   -9.0053 H         1 UNK         0.2981 
    131 H131       33.0068   -0.5534  -10.1040 H         1 UNK         0.0541 
    132 H132       36.5398    0.7443  -10.9813 H         1 UNK         0.3459 
    133 H133       35.3321    1.5902  -10.0433 H         1 UNK         0.3459 
    134 H134       34.5214   -1.8714   -7.7981 H         1 UNK         0.0612 
    135 H135       33.7662   -2.6800   -9.1407 H         1 UNK         0.0612 
    136 H136       33.4894   -1.0990   -5.8081 H         1 UNK         0.0624 
    137 H137       33.0677   -2.7746   -5.5592 H         1 UNK         0.0624 
@<TRIPOS>BOND
     1    1    2 1    
     2    1   72 1    
     3    1   73 1    
     4    1   74 1    
     5    2    3 2    
     6    2    4 am   BACKBONE|DICT|INTERRES
     7    4    5 1    
     8    4   75 1    
     9    5    6 1    
    10    5   35 1    
    11    5   76 1    
    12    6    7 1    
    13    6   77 1    
    14    6   78 1    
    15    7    8 1    
    16    8    9 1    
    17    8   79 1    
    18    8   80 1    
    19    9   10 ar   
    20    9   14 ar   
    21   10   11 ar   
    22   10   81 1    
    23   11   12 ar   
    24   11   71 1    
    25   12   13 ar   
    26   12   82 1    
    27   13   14 ar   
    28   13   15 1    
    29   14   83 1    
    30   15   16 1    
    31   15   84 1    
    32   15   85 1    
    33   16   17 1    
    34   17   18 1    
    35   17   86 1    
    36   17   87 1    
    37   18   19 1    
    38   18   37 1    
    39   18   88 1    
    40   19   20 am   BACKBONE|DICT|INTERRES
    41   19   89 1    
    42   20   21 2    
    43   20   22 1    
    44   22   23 1    
    45   22   24 1    
    46   22   90 1    
    47   23   91 1    
    48   23   92 1    
    49   23   93 1    
    50   24   25 am   BACKBONE|DICT|INTERRES
    51   24   94 1    
    52   25   26 2    
    53   25   27 1    
    54   27   28 1    
    55   27   29 1    
    56   27   95 1    
    57   28   96 1    
    58   28   97 1    
    59   28   98 1    
    60   29   30 am   BACKBONE|DICT|INTERRES
    61   29   99 1    
    62   30   31 2    
    63   30   32 1    
    64   32   33 1    
    65   32   34 1    
    66   32  100 1    
    67   33  101 1    
    68   33  102 1    
    69   33  103 1    
    70   34   35 am   BACKBONE|DICT|INTERRES
    71   34  104 1    
    72   35   36 2    
    73   37   38 2    
    74   37   39 am   BACKBONE|DICT|INTERRES
    75   39   40 1    
    76   39  105 1    
    77   40   41 1    
    78   40   42 1    
    79   40  106 1    
    80   41  107 1    
    81   41  108 1    
    82   41  109 1    
    83   42   43 2    
    84   42   44 am   BACKBONE|DICT|INTERRES
    85   44   45 1    
    86   44  110 1    
    87   45   46 1    
    88   45   47 1    
    89   45  111 1    
    90   46  112 1    
    91   46  113 1    
    92   46  114 1    
    93   47   48 2    
    94   47   49 am   BACKBONE|DICT|INTERRES
    95   49   50 1    
    96   49  115 1    
    97   50   51 1    
    98   50   52 1    
    99   50  116 1    
   100   51  117 1    
   101   51  118 1    
   102   51  119 1    
   103   52   53 2    
   104   52   54 am   BACKBONE|DICT|INTERRES
   105   54   55 1    
   106   54  120 1    
   107   55   56 1    
   108   55   57 1    
   109   55  121 1    
   110   56  122 1    
   111   56  123 1    
   112   56  124 1    
   113   57   58 2    
   114   57   59 am   BACKBONE|DICT|INTERRES
   115   59   60 1    
   116   59  125 1    
   117   60   61 1    
   118   60   62 1    
   119   60  126 1    
   120   61  127 1    
   121   61  128 1    
   122   61  129 1    
   123   62   63 2    
   124   62   64 am   BACKBONE|DICT|INTERRES
   125   64   65 1    
   126   64  130 1    
   127   65   66 1    
   128   65   69 1    
   129   65  131 1    
   130   66   67 am   BACKBONE|DICT|INTERRES
   131   66   68 2    
   132   67  132 1    
   133   67  133 1    
   134   69   70 1    
   135   69  134 1    
   136   69  135 1    
   137   70   71 1    
   138   71  136 1    
   139   71  137 1    
@<TRIPOS>SUBSTRUCTURE
     1 UNK         1 GROUP             0       ****    0 ROOT    
