@<TRIPOS>MOLECULE
3R137
137   139    1
SMALL
USER_CHARGES


@<TRIPOS>ATOM
      1 CA         29.6538   -5.9078   -5.7004 C.3       0 UNK        -0.2020 
      2 C          28.9272   -5.8657   -4.3649 C.2       0 UNK         0.4855 
      3 O          28.5532   -6.9132   -3.8371 O.2       0 UNK        -0.5197 
      4 N          28.7181   -4.6655   -3.8169 N.am      1 UNK        -0.4892 
      5 CA         28.0090   -4.4142   -2.5638 C.3       1 UNK         0.0835 
      6 C6         28.8856   -4.7847   -1.3201 C.3       12 UNK        -0.0855 
      7 S7         28.7791   -3.7568    0.1929 S.3       12 UNK        -0.2931 
      8 C8         30.4691   -3.0926    0.3283 C.3       12 UNK         0.0378 
      9 C9         30.7967   -2.1061   -0.7841 C.ar      12 UNK        -0.0802 
     10 C10        31.5295   -2.5200   -1.8995 C.ar      12 UNK        -0.0944 
     11 C11        31.8678   -1.6110   -2.9043 C.ar      12 UNK        -0.0787 
     12 C12        31.4781   -0.2744   -2.7848 C.ar      12 UNK        -0.0862 
     13 C13        30.7342    0.1536   -1.6781 C.ar      12 UNK        -0.0733 
     14 C14        30.3968   -0.7702   -0.6825 C.ar      12 UNK        -0.0832 
     15 C15        30.3049    1.6118   -1.5285 C.3       12 UNK         0.0240 
     16 S16        29.6720    2.3672   -3.0648 S.3       12 UNK        -0.2522 
     17 C17        28.2686    1.2755   -3.4635 C.3       12 UNK        -0.0967 
     18 CA         27.9294    1.3071   -4.9751 C.3       5 UNK         0.0660 
     19 N          27.4705   -0.0012   -5.4569 N.am      5 UNK        -0.4015 
     20 C          27.1821   -0.3138   -6.7295 C.2       4 UNK         0.4946 
     21 O          27.2848    0.4656   -7.6762 O.2       4 UNK        -0.5353 
     22 CA         26.6553   -1.7307   -6.9894 C.3       4 UNK         0.0277 
     23 CB         27.8101   -2.7448   -7.0260 C.3       4 UNK        -0.1981 
     24 N          25.6655   -2.1171   -5.9828 N.am      4 UNK        -0.4209 
     25 C          24.4140   -1.6336   -5.9413 C.2       3 UNK         0.4942 
     26 O          23.9326   -0.8999   -6.8041 O.2       3 UNK        -0.5208 
     27 CA         23.5641   -2.0036   -4.7134 C.3       3 UNK         0.0250 
     28 CB         22.8332   -3.3361   -4.9426 C.3       3 UNK        -0.1990 
     29 N          24.3453   -2.0792   -3.4756 N.am      3 UNK        -0.4232 
     30 C          24.9745   -1.0409   -2.9062 C.2       2 UNK         0.4993 
     31 O          24.9369    0.1074   -3.3436 O.2       2 UNK        -0.5286 
     32 CA         25.8385   -1.3453   -1.6732 C.3       2 UNK         0.0209 
     33 CB         25.0004   -1.2619   -0.3882 C.3       2 UNK        -0.1931 
     34 N          26.5042   -2.6495   -1.7431 N.am      2 UNK        -0.4546 
     35 C          27.4353   -2.9829   -2.6477 C.2       1 UNK         0.5154 
     36 O          27.7865   -2.2278   -3.5622 O.2       1 UNK        -0.5181 
     37 C          26.9468    2.4497   -5.3060 C.2       5 UNK         0.5014 
     38 O          27.3745    3.5138   -5.7540 O.2       5 UNK        -0.5248 
     39 N          25.6462    2.1948   -5.1057 N.am      6 UNK        -0.4434 
     40 CA         24.5454    3.1001   -5.4443 C.3       6 UNK         0.0363 
     41 CB         23.2576    2.5816   -4.7834 C.3       6 UNK        -0.1936 
     42 C          24.3297    3.2848   -6.9591 C.2       6 UNK         0.5081 
     43 O          23.6712    4.2490   -7.3522 O.2       6 UNK        -0.5248 
     44 N          24.8620    2.3654   -7.7736 N.am      7 UNK        -0.4718 
     45 CA         24.8314    2.4041   -9.2311 C.3       7 UNK         0.0273 
     46 CB         24.4926    0.9935   -9.7580 C.3       7 UNK        -0.1935 
     47 C          26.1658    2.9745   -9.7460 C.2       7 UNK         0.5018 
     48 O          26.4724    4.1357   -9.4706 O.2       7 UNK        -0.5186 
     49 N          26.9233    2.1731  -10.5054 N.am      8 UNK        -0.4240 
     50 CA         28.1752    2.5735  -11.1512 C.3       8 UNK         0.0235 
     51 CB         28.4055    1.6698  -12.3753 C.3       8 UNK        -0.2000 
     52 C          29.4067    2.5347  -10.2284 C.2       8 UNK         0.4941 
     53 O          30.4306    3.1099  -10.5998 O.2       8 UNK        -0.5273 
     54 N          29.3170    1.8319   -9.0864 N.am      9 UNK        -0.4262 
     55 CA         30.4114    1.5188   -8.1543 C.3       9 UNK         0.0264 
     56 CB         30.9029    2.7844   -7.4216 C.3       9 UNK        -0.1955 
     57 C          31.5479    0.7161   -8.8177 C.2       9 UNK         0.5031 
     58 O          32.7233    0.9317   -8.5150 O.2       9 UNK        -0.5390 
     59 N          31.1663   -0.2119   -9.7092 N.am      10 UNK        -0.4204 
     60 CA         32.0567   -1.0333  -10.5376 C.3       10 UNK         0.0237 
     61 CB         31.2067   -1.8711  -11.5070 C.3       10 UNK        -0.1985 
     62 C          33.0228   -1.9360   -9.7490 C.2       10 UNK         0.4970 
     63 O          34.0755   -2.2929  -10.2795 O.2       10 UNK        -0.4914 
     64 N          32.6616   -2.2735   -8.5053 N.am      11 UNK        -0.4285 
     65 CA         33.5252   -2.9668   -7.5421 C.3       11 UNK         0.1007 
     66 C          34.6918   -2.1074   -6.9686 C.2       11 UNK         0.5703 
     67 N          34.7274   -0.7949   -7.1734 N.am      11 UNK        -0.7361 
     68 O          35.5909   -2.6492   -6.3304 O.2       11 UNK        -0.4986 
     69 C69        32.6948   -3.6585   -6.4291 C.3       12 UNK        -0.0947 
     70 S70        31.5895   -2.5446   -5.4896 S.3       12 UNK        -0.2240 
     71 C71        32.6733   -2.0761   -4.1048 C.3       12 UNK         0.0194 
     72 H72        30.6608   -6.3071   -5.5672 H         1 UNK         0.0906 
     73 H73        29.1194   -6.5519   -6.4009 H         1 UNK         0.0906 
     74 H74        29.7343   -4.9175   -6.1494 H         1 UNK         0.0906 
     75 H75        29.0109   -3.8142   -4.2831 H         1 UNK         0.3140 
     76 H76        27.1307   -5.0641   -2.5520 H         1 UNK         0.1085 
     77 H77        28.6491   -5.8087   -1.0262 H         1 UNK         0.0836 
     78 H78        29.9342   -4.8345   -1.6124 H         1 UNK         0.0836 
     79 H79        31.1844   -3.9167    0.3361 H         1 UNK         0.0731 
     80 H80        30.5731   -2.5966    1.2945 H         1 UNK         0.0731 
     81 H81        31.8470   -3.5500   -1.9847 H         1 UNK         0.1312 
     82 H82        31.7491    0.4306   -3.5587 H         1 UNK         0.1406 
     83 H83        29.8300   -0.4506    0.1817 H         1 UNK         0.1631 
     84 H84        31.1612    2.1920   -1.1822 H         1 UNK         0.0717 
     85 H85        29.5356    1.7085   -0.7605 H         1 UNK         0.0717 
     86 H86        28.5432    0.2627   -3.1704 H         1 UNK         0.0934 
     87 H87        27.4118    1.5370   -2.8395 H         1 UNK         0.0934 
     88 H88        28.8466    1.5107   -5.5284 H         1 UNK         0.0739 
     89 H89        27.4074   -0.7362   -4.7583 H         1 UNK         0.3093 
     90 H90        26.1709   -1.7358   -7.9684 H         1 UNK         0.0818 
     91 H91        28.5078   -2.5076   -7.8303 H         1 UNK         0.0819 
     92 H92        28.3806   -2.7474   -6.0981 H         1 UNK         0.0819 
     93 H93        27.4460   -3.7571   -7.2022 H         1 UNK         0.0819 
     94 H94        25.9894   -2.6906   -5.2178 H         1 UNK         0.3041 
     95 H95        22.8148   -1.2191   -4.5856 H         1 UNK         0.0784 
     96 H96        22.2263   -3.2961   -5.8484 H         1 UNK         0.0793 
     97 H97        23.5298   -4.1681   -5.0537 H         1 UNK         0.0793 
     98 H98        22.1614   -3.5678   -4.1158 H         1 UNK         0.0793 
     99 H99        24.4271   -2.9851   -3.0383 H         1 UNK         0.3024 
    100 H100       26.6159   -0.5802   -1.6228 H         1 UNK         0.1171 
    101 H101       25.6220   -1.3891    0.4985 H         1 UNK         0.0786 
    102 H102       24.5131   -0.2894   -0.3033 H         1 UNK         0.0786 
    103 H103       24.2187   -2.0221   -0.3631 H         1 UNK         0.0786 
    104 H104       26.2874   -3.3099   -1.0095 H         1 UNK         0.2977 
    105 H105       25.3870    1.3216   -4.6482 H         1 UNK         0.3127 
    106 H106       24.7761    4.0820   -5.0262 H         1 UNK         0.0770 
    107 H107       22.9911    1.5894   -5.1510 H         1 UNK         0.0814 
    108 H108       22.4160    3.2446   -4.9884 H         1 UNK         0.0814 
    109 H109       23.3645    2.5190   -3.7003 H         1 UNK         0.0814 
    110 H110       25.4367    1.6378   -7.3671 H         1 UNK         0.2983 
    111 H111       24.0466    3.0818   -9.5737 H         1 UNK         0.0947 
    112 H112       24.4332    0.9782  -10.8471 H         1 UNK         0.0806 
    113 H113       23.5223    0.6653   -9.3843 H         1 UNK         0.0806 
    114 H114       25.2242    0.2473   -9.4466 H         1 UNK         0.0806 
    115 H115       26.6073    1.2277  -10.6658 H         1 UNK         0.3000 
    116 H116       28.0717    3.6016  -11.5053 H         1 UNK         0.0850 
    117 H117       29.3157    1.9531  -12.9059 H         1 UNK         0.0810 
    118 H118       27.5829    1.7480  -13.0865 H         1 UNK         0.0810 
    119 H119       28.5073    0.6215  -12.0925 H         1 UNK         0.0810 
    120 H120       28.4193    1.4212   -8.8347 H         1 UNK         0.3040 
    121 H121       29.9915    0.8495   -7.4042 H         1 UNK         0.0766 
    122 H122       31.4057    3.4753   -8.0988 H         1 UNK         0.0812 
    123 H123       31.6112    2.5282   -6.6326 H         1 UNK         0.0812 
    124 H124       30.0749    3.3162   -6.9524 H         1 UNK         0.0812 
    125 H125       30.1768   -0.3137   -9.8804 H         1 UNK         0.3205 
    126 H126       32.6708   -0.3483  -11.1259 H         1 UNK         0.0754 
    127 H127       31.8389   -2.4748  -12.1599 H         1 UNK         0.0769 
    128 H128       30.5956   -1.2372  -12.1501 H         1 UNK         0.0769 
    129 H129       30.5421   -2.5535  -10.9755 H         1 UNK         0.0769 
    130 H130       31.7872   -1.9289   -8.1405 H         1 UNK         0.2981 
    131 H131       34.0194   -3.7697   -8.0924 H         1 UNK         0.0541 
    132 H132       35.4962   -0.2633   -6.7989 H         1 UNK         0.3459 
    133 H133       33.9944   -0.3184   -7.6899 H         1 UNK         0.3459 
    134 H134       33.3426   -4.2064   -5.7427 H         1 UNK         0.0612 
    135 H135       32.0642   -4.4202   -6.8887 H         1 UNK         0.0612 
    136 H136       33.3010   -2.9214   -3.8185 H         1 UNK         0.0624 
    137 H137       33.3514   -1.2852   -4.4285 H         1 UNK         0.0624 
@<TRIPOS>BOND
     1    1    2 1    
     2    1   72 1    
     3    1   73 1    
     4    1   74 1    
     5    2    3 2    
     6    2    4 am   BACKBONE|DICT|INTERRES
     7    4    5 1    
     8    4   75 1    
     9    5    6 1    
    10    5   35 1    
    11    5   76 1    
    12    6    7 1    
    13    6   77 1    
    14    6   78 1    
    15    7    8 1    
    16    8    9 1    
    17    8   79 1    
    18    8   80 1    
    19    9   10 ar   
    20    9   14 ar   
    21   10   11 ar   
    22   10   81 1    
    23   11   12 ar   
    24   11   71 1    
    25   12   13 ar   
    26   12   82 1    
    27   13   14 ar   
    28   13   15 1    
    29   14   83 1    
    30   15   16 1    
    31   15   84 1    
    32   15   85 1    
    33   16   17 1    
    34   17   18 1    
    35   17   86 1    
    36   17   87 1    
    37   18   19 1    
    38   18   37 1    
    39   18   88 1    
    40   19   20 am   BACKBONE|DICT|INTERRES
    41   19   89 1    
    42   20   21 2    
    43   20   22 1    
    44   22   23 1    
    45   22   24 1    
    46   22   90 1    
    47   23   91 1    
    48   23   92 1    
    49   23   93 1    
    50   24   25 am   BACKBONE|DICT|INTERRES
    51   24   94 1    
    52   25   26 2    
    53   25   27 1    
    54   27   28 1    
    55   27   29 1    
    56   27   95 1    
    57   28   96 1    
    58   28   97 1    
    59   28   98 1    
    60   29   30 am   BACKBONE|DICT|INTERRES
    61   29   99 1    
    62   30   31 2    
    63   30   32 1    
    64   32   33 1    
    65   32   34 1    
    66   32  100 1    
    67   33  101 1    
    68   33  102 1    
    69   33  103 1    
    70   34   35 am   BACKBONE|DICT|INTERRES
    71   34  104 1    
    72   35   36 2    
    73   37   38 2    
    74   37   39 am   BACKBONE|DICT|INTERRES
    75   39   40 1    
    76   39  105 1    
    77   40   41 1    
    78   40   42 1    
    79   40  106 1    
    80   41  107 1    
    81   41  108 1    
    82   41  109 1    
    83   42   43 2    
    84   42   44 am   BACKBONE|DICT|INTERRES
    85   44   45 1    
    86   44  110 1    
    87   45   46 1    
    88   45   47 1    
    89   45  111 1    
    90   46  112 1    
    91   46  113 1    
    92   46  114 1    
    93   47   48 2    
    94   47   49 am   BACKBONE|DICT|INTERRES
    95   49   50 1    
    96   49  115 1    
    97   50   51 1    
    98   50   52 1    
    99   50  116 1    
   100   51  117 1    
   101   51  118 1    
   102   51  119 1    
   103   52   53 2    
   104   52   54 am   BACKBONE|DICT|INTERRES
   105   54   55 1    
   106   54  120 1    
   107   55   56 1    
   108   55   57 1    
   109   55  121 1    
   110   56  122 1    
   111   56  123 1    
   112   56  124 1    
   113   57   58 2    
   114   57   59 am   BACKBONE|DICT|INTERRES
   115   59   60 1    
   116   59  125 1    
   117   60   61 1    
   118   60   62 1    
   119   60  126 1    
   120   61  127 1    
   121   61  128 1    
   122   61  129 1    
   123   62   63 2    
   124   62   64 am   BACKBONE|DICT|INTERRES
   125   64   65 1    
   126   64  130 1    
   127   65   66 1    
   128   65   69 1    
   129   65  131 1    
   130   66   67 am   BACKBONE|DICT|INTERRES
   131   66   68 2    
   132   67  132 1    
   133   67  133 1    
   134   69   70 1    
   135   69  134 1    
   136   69  135 1    
   137   70   71 1    
   138   71  136 1    
   139   71  137 1    
@<TRIPOS>SUBSTRUCTURE
     1 UNK         1 GROUP             0       ****    0 ROOT    
