@<TRIPOS>MOLECULE
3R137
137   139    1
SMALL
USER_CHARGES


@<TRIPOS>ATOM
      1 CA         27.9121   -6.2956    0.2857 C.3       0 UNK        -0.2020 
      2 C          27.3087   -4.9877    0.7751 C.2       0 UNK         0.4855 
      3 O          26.3692   -5.0048    1.5704 O.2       0 UNK        -0.5197 
      4 N          27.8412   -3.8525    0.3043 N.am      1 UNK        -0.4892 
      5 CA         27.3731   -2.5005    0.6400 C.3       1 UNK         0.0835 
      6 C6         28.4605   -1.4316    0.3467 C.3       12 UNK        -0.0855 
      7 S7         28.8719   -1.2483   -1.4257 S.3       12 UNK        -0.2931 
      8 C8         30.3835   -2.2462   -1.5674 C.3       12 UNK         0.0378 
      9 C9         30.6215   -2.6615   -3.0107 C.ar      12 UNK        -0.0802 
     10 C10        31.6668   -2.0991   -3.7483 C.ar      12 UNK        -0.0944 
     11 C11        31.9085   -2.4997   -5.0705 C.ar      12 UNK        -0.0787 
     12 C12        31.0839   -3.4773   -5.6410 C.ar      12 UNK        -0.0862 
     13 C13        30.0347   -4.0488   -4.9131 C.ar      12 UNK        -0.0733 
     14 C14        29.8076   -3.6328   -3.5995 C.ar      12 UNK        -0.0832 
     15 C15        29.1833   -5.1580   -5.5191 C.3       12 UNK         0.0240 
     16 S16        28.1328   -4.5884   -6.8918 S.3       12 UNK        -0.2522 
     17 C17        26.9045   -3.5350   -6.0460 C.3       12 UNK        -0.0967 
     18 CA         26.5134   -2.3192   -6.9215 C.3       5 UNK         0.0660 
     19 N          25.2077   -1.7591   -6.5688 N.am      5 UNK        -0.4015 
     20 C          24.5001   -0.9485   -7.3710 C.2       4 UNK         0.4946 
     21 O          24.8577   -0.6256   -8.5038 O.2       4 UNK        -0.5353 
     22 CA         23.1909   -0.3683   -6.8084 C.3       4 UNK         0.0277 
     23 CB         22.0268   -1.3467   -7.0314 C.3       4 UNK        -0.1981 
     24 N          23.2822   -0.0273   -5.3875 N.am      4 UNK        -0.4209 
     25 C          24.0830    0.9252   -4.8881 C.2       3 UNK         0.4942 
     26 O          24.7773    1.6662   -5.5809 O.2       3 UNK        -0.5208 
     27 CA         24.1644    1.0368   -3.3564 C.3       3 UNK         0.0250 
     28 CB         23.1080    2.0218   -2.8314 C.3       3 UNK        -0.1990 
     29 N          24.0323   -0.2461   -2.6557 N.am      3 UNK        -0.4232 
     30 C          24.8323   -1.3062   -2.8360 C.2       2 UNK         0.4993 
     31 O          25.7498   -1.3465   -3.6609 O.2       2 UNK        -0.5286 
     32 CA         24.5396   -2.5446   -1.9777 C.3       2 UNK         0.0209 
     33 CB         24.2384   -3.7663   -2.8625 C.3       2 UNK        -0.1931 
     34 N          25.6886   -2.8376   -1.1271 N.am      2 UNK        -0.4546 
     35 C          26.0243   -2.1459   -0.0284 C.2       1 UNK         0.5154 
     36 O          25.3221   -1.2562    0.4559 O.2       1 UNK        -0.5181 
     37 C          27.5930   -1.2241   -6.9171 C.2       5 UNK         0.5014 
     38 O          28.3554   -1.1392   -7.8772 O.2       5 UNK        -0.5248 
     39 N          27.5917   -0.3699   -5.8825 N.am      6 UNK        -0.4434 
     40 CA         28.4834    0.7895   -5.7699 C.3       6 UNK         0.0363 
     41 CB         28.3020    1.4393   -4.3903 C.3       6 UNK        -0.1936 
     42 C          28.2885    1.8336   -6.8880 C.2       6 UNK         0.5081 
     43 O          29.2521    2.4975   -7.2684 O.2       6 UNK        -0.5248 
     44 N          27.0549    1.9696   -7.3940 N.am      7 UNK        -0.4718 
     45 CA         26.7261    2.8012   -8.5515 C.3       7 UNK         0.0273 
     46 CB         25.2131    3.0708   -8.5843 C.3       7 UNK        -0.1935 
     47 C          27.1980    2.1724   -9.8730 C.2       7 UNK         0.5018 
     48 O          27.7575    2.8840  -10.7081 O.2       7 UNK        -0.5186 
     49 N          26.9540    0.8646  -10.0475 N.am      8 UNK        -0.4240 
     50 CA         27.3245    0.1039  -11.2442 C.3       8 UNK         0.0235 
     51 CB         26.6112   -1.2583  -11.2351 C.3       8 UNK        -0.2000 
     52 C          28.8436   -0.0779  -11.3917 C.2       8 UNK         0.4941 
     53 O          29.3855    0.1915  -12.4648 O.2       8 UNK        -0.5273 
     54 N          29.4988   -0.5240  -10.3156 N.am      9 UNK        -0.4262 
     55 CA         30.9409   -0.6997  -10.2142 C.3       9 UNK         0.0264 
     56 CB         31.2374   -2.0981   -9.6403 C.3       9 UNK        -0.1955 
     57 C          31.4681    0.4168   -9.3096 C.2       9 UNK         0.5031 
     58 O          31.5154    0.2495   -8.0903 O.2       9 UNK        -0.5390 
     59 N          31.8359    1.5504   -9.9193 N.am      10 UNK        -0.4204 
     60 CA         32.3418    2.7517   -9.2475 C.3       10 UNK         0.0237 
     61 CB         32.2096    3.9495  -10.2069 C.3       10 UNK        -0.1985 
     62 C          33.7778    2.5718   -8.7109 C.2       10 UNK         0.4970 
     63 O          34.6965    3.2651   -9.1516 O.2       10 UNK        -0.4914 
     64 N          33.9436    1.6281   -7.7790 N.am      11 UNK        -0.4285 
     65 CA         35.2037    1.2922   -7.1016 C.3       11 UNK         0.1007 
     66 C          35.7090    2.3473   -6.0727 C.2       11 UNK         0.5703 
     67 N          34.9165    3.3428   -5.6921 N.am      11 UNK        -0.7361 
     68 O          36.8505    2.2682   -5.6240 O.2       11 UNK        -0.4986 
     69 C69        35.1599   -0.1404   -6.5039 C.3       12 UNK        -0.0947 
     70 S70        33.8161   -0.3967   -5.2911 S.3       12 UNK        -0.2240 
     71 C71        33.0704   -1.9492   -5.9030 C.3       12 UNK         0.0194 
     72 H72        28.7390   -6.1325   -0.4053 H         1 UNK         0.0906 
     73 H73        28.2858   -6.8748    1.1298 H         1 UNK         0.0906 
     74 H74        27.1550   -6.8896   -0.2257 H         1 UNK         0.0906 
     75 H75        28.6143   -3.8949   -0.3421 H         1 UNK         0.3140 
     76 H76        27.1867   -2.4808    1.7165 H         1 UNK         0.1085 
     77 H77        28.1307   -0.4580    0.7146 H         1 UNK         0.0836 
     78 H78        29.3677   -1.6578    0.9094 H         1 UNK         0.0836 
     79 H79        30.3095   -3.1400   -0.9477 H         1 UNK         0.0731 
     80 H80        31.2269   -1.6729   -1.1791 H         1 UNK         0.0731 
     81 H81        32.2966   -1.3598   -3.2753 H         1 UNK         0.1312 
     82 H82        31.2659   -3.8078   -6.6547 H         1 UNK         0.1406 
     83 H83        29.0024   -4.0724   -3.0274 H         1 UNK         0.1631 
     84 H84        28.5531   -5.6277   -4.7622 H         1 UNK         0.0717 
     85 H85        29.8436   -5.9426   -5.8912 H         1 UNK         0.0717 
     86 H86        26.0288   -4.1572   -5.8558 H         1 UNK         0.0934 
     87 H87        27.2694   -3.2193   -5.0667 H         1 UNK         0.0934 
     88 H88        26.4223   -2.6734   -7.9513 H         1 UNK         0.0739 
     89 H89        24.9058   -1.8928   -5.6132 H         1 UNK         0.3093 
     90 H90        22.9753    0.5501   -7.3588 H         1 UNK         0.0818 
     91 H91        21.0777   -0.9130   -6.7156 H         1 UNK         0.0819 
     92 H92        21.9288   -1.5996   -8.0882 H         1 UNK         0.0819 
     93 H93        22.1690   -2.2800   -6.4852 H         1 UNK         0.0819 
     94 H94        22.7340   -0.5792   -4.7440 H         1 UNK         0.3041 
     95 H95        25.1513    1.4355   -3.1135 H         1 UNK         0.0784 
     96 H96        23.2008    2.9913   -3.3234 H         1 UNK         0.0793 
     97 H97        22.0939    1.6618   -3.0095 H         1 UNK         0.0793 
     98 H98        23.2217    2.1931   -1.7607 H         1 UNK         0.0793 
     99 H99        23.3119   -0.2970   -1.9492 H         1 UNK         0.3024 
    100 H100       23.6700   -2.3551   -1.3440 H         1 UNK         0.1171 
    101 H101       23.9889   -4.6389   -2.2584 H         1 UNK         0.0786 
    102 H102       23.3889   -3.5747   -3.5194 H         1 UNK         0.0786 
    103 H103       25.0876   -4.0304   -3.4937 H         1 UNK         0.0786 
    104 H104       26.3459   -3.5218   -1.4692 H         1 UNK         0.2977 
    105 H105       26.9424   -0.5325   -5.1183 H         1 UNK         0.3127 
    106 H106       29.5090    0.4195   -5.8446 H         1 UNK         0.0770 
    107 H107       27.2935    1.8323   -4.2606 H         1 UNK         0.0814 
    108 H108       28.9965    2.2697   -4.2575 H         1 UNK         0.0814 
    109 H109       28.4918    0.7265   -3.5889 H         1 UNK         0.0814 
    110 H110       26.2885    1.4782   -6.9463 H         1 UNK         0.2983 
    111 H111       27.2363    3.7607   -8.4401 H         1 UNK         0.0947 
    112 H112       24.9471    3.7016   -9.4335 H         1 UNK         0.0806 
    113 H113       24.8840    3.5860   -7.6817 H         1 UNK         0.0806 
    114 H114       24.6381    2.1483   -8.6692 H         1 UNK         0.0806 
    115 H115       26.4474    0.3601   -9.3264 H         1 UNK         0.3000 
    116 H116       26.9730    0.6612  -12.1152 H         1 UNK         0.0850 
    117 H117       26.8684   -1.8413  -12.1204 H         1 UNK         0.0810 
    118 H118       25.5278   -1.1370  -11.2298 H         1 UNK         0.0810 
    119 H119       26.8835   -1.8514  -10.3611 H         1 UNK         0.0810 
    120 H120       28.9844   -0.6860   -9.4470 H         1 UNK         0.3040 
    121 H121       31.4209   -0.6239  -11.1922 H         1 UNK         0.0766 
    122 H122       30.7644   -2.2468   -8.6684 H         1 UNK         0.0812 
    123 H123       32.3098   -2.2464   -9.5091 H         1 UNK         0.0812 
    124 H124       30.8777   -2.8821  -10.3066 H         1 UNK         0.0812 
    125 H125       31.7594    1.5987  -10.9255 H         1 UNK         0.3205 
    126 H126       31.7038    2.9520   -8.3841 H         1 UNK         0.0754 
    127 H127       32.5431    4.8718   -9.7291 H         1 UNK         0.0769 
    128 H128       31.1726    4.1011  -10.5084 H         1 UNK         0.0769 
    129 H129       32.8066    3.8141  -11.1097 H         1 UNK         0.0769 
    130 H130       33.1290    1.0779   -7.5153 H         1 UNK         0.2981 
    131 H131       35.9709    1.2753   -7.8779 H         1 UNK         0.0541 
    132 H132       35.2584    4.0220   -5.0310 H         1 UNK         0.3459 
    133 H133       33.9771    3.4099   -6.0481 H         1 UNK         0.3459 
    134 H134       36.1087   -0.3907   -6.0261 H         1 UNK         0.0612 
    135 H135       35.0458   -0.8591   -7.3167 H         1 UNK         0.0612 
    136 H136       33.8489   -2.7117   -5.9488 H         1 UNK         0.0624 
    137 H137       32.7328   -1.7868   -6.9267 H         1 UNK         0.0624 
@<TRIPOS>BOND
     1    1    2 1    
     2    1   72 1    
     3    1   73 1    
     4    1   74 1    
     5    2    3 2    
     6    2    4 am   BACKBONE|DICT|INTERRES
     7    4    5 1    
     8    4   75 1    
     9    5    6 1    
    10    5   35 1    
    11    5   76 1    
    12    6    7 1    
    13    6   77 1    
    14    6   78 1    
    15    7    8 1    
    16    8    9 1    
    17    8   79 1    
    18    8   80 1    
    19    9   10 ar   
    20    9   14 ar   
    21   10   11 ar   
    22   10   81 1    
    23   11   12 ar   
    24   11   71 1    
    25   12   13 ar   
    26   12   82 1    
    27   13   14 ar   
    28   13   15 1    
    29   14   83 1    
    30   15   16 1    
    31   15   84 1    
    32   15   85 1    
    33   16   17 1    
    34   17   18 1    
    35   17   86 1    
    36   17   87 1    
    37   18   19 1    
    38   18   37 1    
    39   18   88 1    
    40   19   20 am   BACKBONE|DICT|INTERRES
    41   19   89 1    
    42   20   21 2    
    43   20   22 1    
    44   22   23 1    
    45   22   24 1    
    46   22   90 1    
    47   23   91 1    
    48   23   92 1    
    49   23   93 1    
    50   24   25 am   BACKBONE|DICT|INTERRES
    51   24   94 1    
    52   25   26 2    
    53   25   27 1    
    54   27   28 1    
    55   27   29 1    
    56   27   95 1    
    57   28   96 1    
    58   28   97 1    
    59   28   98 1    
    60   29   30 am   BACKBONE|DICT|INTERRES
    61   29   99 1    
    62   30   31 2    
    63   30   32 1    
    64   32   33 1    
    65   32   34 1    
    66   32  100 1    
    67   33  101 1    
    68   33  102 1    
    69   33  103 1    
    70   34   35 am   BACKBONE|DICT|INTERRES
    71   34  104 1    
    72   35   36 2    
    73   37   38 2    
    74   37   39 am   BACKBONE|DICT|INTERRES
    75   39   40 1    
    76   39  105 1    
    77   40   41 1    
    78   40   42 1    
    79   40  106 1    
    80   41  107 1    
    81   41  108 1    
    82   41  109 1    
    83   42   43 2    
    84   42   44 am   BACKBONE|DICT|INTERRES
    85   44   45 1    
    86   44  110 1    
    87   45   46 1    
    88   45   47 1    
    89   45  111 1    
    90   46  112 1    
    91   46  113 1    
    92   46  114 1    
    93   47   48 2    
    94   47   49 am   BACKBONE|DICT|INTERRES
    95   49   50 1    
    96   49  115 1    
    97   50   51 1    
    98   50   52 1    
    99   50  116 1    
   100   51  117 1    
   101   51  118 1    
   102   51  119 1    
   103   52   53 2    
   104   52   54 am   BACKBONE|DICT|INTERRES
   105   54   55 1    
   106   54  120 1    
   107   55   56 1    
   108   55   57 1    
   109   55  121 1    
   110   56  122 1    
   111   56  123 1    
   112   56  124 1    
   113   57   58 2    
   114   57   59 am   BACKBONE|DICT|INTERRES
   115   59   60 1    
   116   59  125 1    
   117   60   61 1    
   118   60   62 1    
   119   60  126 1    
   120   61  127 1    
   121   61  128 1    
   122   61  129 1    
   123   62   63 2    
   124   62   64 am   BACKBONE|DICT|INTERRES
   125   64   65 1    
   126   64  130 1    
   127   65   66 1    
   128   65   69 1    
   129   65  131 1    
   130   66   67 am   BACKBONE|DICT|INTERRES
   131   66   68 2    
   132   67  132 1    
   133   67  133 1    
   134   69   70 1    
   135   69  134 1    
   136   69  135 1    
   137   70   71 1    
   138   71  136 1    
   139   71  137 1    
@<TRIPOS>SUBSTRUCTURE
     1 UNK         1 GROUP             0       ****    0 ROOT    
