@<TRIPOS>MOLECULE
3R137
137   139    1
SMALL
USER_CHARGES


@<TRIPOS>ATOM
      1 CA         23.5610   -5.0278   -8.2563 C.3       0 UNK        -0.2020 
      2 C          23.9008   -4.9912   -6.7741 C.2       0 UNK         0.4855 
      3 O          23.4266   -5.8357   -6.0145 O.2       0 UNK        -0.5197 
      4 N          24.7139   -4.0128   -6.3548 N.am      1 UNK        -0.4892 
      5 CA         25.1955   -3.8445   -4.9731 C.3       1 UNK         0.0835 
      6 C6         26.5098   -3.0163   -4.8908 C.3       12 UNK        -0.0855 
      7 S7         27.7396   -3.4749   -6.1612 S.3       12 UNK        -0.2931 
      8 C8         28.8026   -4.6668   -5.2857 C.3       12 UNK         0.0378 
      9 C9         30.0628   -4.0039   -4.7496 C.ar      12 UNK        -0.0802 
     10 C10        31.0449   -3.5613   -5.6413 C.ar      12 UNK        -0.0944 
     11 C11        32.2104   -2.9425   -5.1811 C.ar      12 UNK        -0.0787 
     12 C12        32.3947   -2.7926   -3.8014 C.ar      12 UNK        -0.0862 
     13 C13        31.4257   -3.2354   -2.8963 C.ar      12 UNK        -0.0733 
     14 C14        30.2628   -3.8485   -3.3749 C.ar      12 UNK        -0.0832 
     15 C15        31.6421   -3.0399   -1.4017 C.3       12 UNK         0.0240 
     16 S16        30.4228   -1.9076   -0.6597 S.3       12 UNK        -0.2522 
     17 C17        30.5490   -0.4234   -1.7230 C.3       12 UNK        -0.0967 
     18 CA         29.4018   -0.3519   -2.7717 C.3       5 UNK         0.0660 
     19 N          28.0662   -0.4971   -2.1807 N.am      5 UNK        -0.4015 
     20 C          27.4583    0.3481   -1.3380 C.2       4 UNK         0.4946 
     21 O          27.9414    1.4068   -0.9313 O.2       4 UNK        -0.5353 
     22 CA         26.0400   -0.0623   -0.9093 C.3       4 UNK         0.0277 
     23 CB         25.8055    0.2167    0.5862 C.3       4 UNK        -0.1981 
     24 N          24.9743    0.5782   -1.6871 N.am      4 UNK        -0.4209 
     25 C          24.8798    0.6726   -3.0211 C.2       3 UNK         0.4942 
     26 O          25.7504    0.3237   -3.8248 O.2       3 UNK        -0.5208 
     27 CA         23.5228    1.1406   -3.5586 C.3       3 UNK         0.0250 
     28 CB         23.6657    2.1625   -4.7003 C.3       3 UNK        -0.1990 
     29 N          22.8383   -0.0555   -4.0410 N.am      3 UNK        -0.4232 
     30 C          22.1448   -0.8899   -3.2545 C.2       2 UNK         0.4993 
     31 O          21.8013   -0.6252   -2.1016 O.2       2 UNK        -0.5286 
     32 CA         21.8308   -2.2744   -3.8407 C.3       2 UNK         0.0209 
     33 CB         20.5991   -2.2157   -4.7590 C.3       2 UNK        -0.1931 
     34 N          22.9657   -2.8452   -4.5748 N.am      2 UNK        -0.4546 
     35 C          24.1199   -3.2603   -4.0255 C.2       1 UNK         0.5154 
     36 O          24.3579   -3.1949   -2.8188 O.2       1 UNK        -0.5181 
     37 C          29.5145    0.8699   -3.7130 C.2       5 UNK         0.5014 
     38 O          30.6187    1.3766   -3.9194 O.2       5 UNK        -0.5248 
     39 N          28.3801    1.3174   -4.2706 N.am      6 UNK        -0.4434 
     40 CA         28.2692    2.4845   -5.1461 C.3       6 UNK         0.0363 
     41 CB         27.5151    3.5955   -4.3970 C.3       6 UNK        -0.1936 
     42 C          27.5768    2.1643   -6.4801 C.2       6 UNK         0.5081 
     43 O          27.7208    2.9477   -7.4189 O.2       6 UNK        -0.5248 
     44 N          26.8338    1.0482   -6.5604 N.am      7 UNK        -0.4718 
     45 CA         26.1255    0.6270   -7.7763 C.3       7 UNK         0.0273 
     46 CB         25.1430   -0.5072   -7.4436 C.3       7 UNK        -0.1935 
     47 C          27.0699    0.1862   -8.9088 C.2       7 UNK         0.5018 
     48 O          26.7553    0.4092  -10.0788 O.2       7 UNK        -0.5186 
     49 N          28.1966   -0.4391   -8.5445 N.am      8 UNK        -0.4240 
     50 CA         29.2359   -0.8737   -9.4738 C.3       8 UNK         0.0235 
     51 CB         30.0591   -1.9965   -8.8250 C.3       8 UNK        -0.2000 
     52 C          30.1466    0.3036   -9.8402 C.2       8 UNK         0.4941 
     53 O          30.6826    0.9541   -8.9410 O.2       8 UNK        -0.5273 
     54 N          30.3663    0.5097  -11.1461 N.am      9 UNK        -0.4262 
     55 CA         31.2305    1.5607  -11.7021 C.3       9 UNK         0.0264 
     56 CB         31.0714    1.5879  -13.2313 C.3       9 UNK        -0.1955 
     57 C          32.7179    1.4328  -11.3173 C.2       9 UNK         0.5031 
     58 O          33.4442    2.4252  -11.3814 O.2       9 UNK        -0.5390 
     59 N          33.1404    0.2265  -10.9141 N.am      10 UNK        -0.4204 
     60 CA         34.4626   -0.0606  -10.3559 C.3       10 UNK         0.0237 
     61 CB         34.6765   -1.5838  -10.3404 C.3       10 UNK        -0.1985 
     62 C          34.6755    0.5203   -8.9438 C.2       10 UNK         0.4970 
     63 O          35.8296    0.6837   -8.5452 O.2       10 UNK        -0.4914 
     64 N          33.5852    0.8038   -8.2187 N.am      11 UNK        -0.4285 
     65 CA         33.5832    1.3640   -6.8624 C.3       11 UNK         0.1007 
     66 C          32.8115    2.7136   -6.8584 C.2       11 UNK         0.5703 
     67 N          31.9711    2.9993   -5.8736 N.am      11 UNK        -0.7361 
     68 O          33.0259    3.5570   -7.7276 O.2       11 UNK        -0.4986 
     69 C69        33.1168    0.3202   -5.8073 C.3       12 UNK        -0.0947 
     70 S70        34.2839   -1.0754   -5.6637 S.3       12 UNK        -0.2240 
     71 C71        33.2640   -2.4923   -6.1951 C.3       12 UNK         0.0194 
     72 H72        23.8885   -5.9713   -8.6921 H         1 UNK         0.0906 
     73 H73        22.4837   -4.9434   -8.3970 H         1 UNK         0.0906 
     74 H74        24.0394   -4.2170   -8.8056 H         1 UNK         0.0906 
     75 H75        25.1151   -3.3792   -7.0308 H         1 UNK         0.3140 
     76 H76        25.4223   -4.8416   -4.5884 H         1 UNK         0.1085 
     77 H77        26.9615   -3.1160   -3.9023 H         1 UNK         0.0836 
     78 H78        26.3008   -1.9534   -5.0124 H         1 UNK         0.0836 
     79 H79        28.2417   -5.1593   -4.4900 H         1 UNK         0.0731 
     80 H80        29.0894   -5.4540   -5.9845 H         1 UNK         0.0731 
     81 H81        30.8967   -3.7053   -6.7021 H         1 UNK         0.1312 
     82 H82        33.2960   -2.3309   -3.4239 H         1 UNK         0.1406 
     83 H83        29.5124   -4.1905   -2.6748 H         1 UNK         0.1631 
     84 H84        32.6435   -2.6568   -1.1991 H         1 UNK         0.0717 
     85 H85        31.5777   -4.0067   -0.9007 H         1 UNK         0.0717 
     86 H86        30.5308    0.4587   -1.0808 H         1 UNK         0.0934 
     87 H87        31.5244   -0.4153   -2.2130 H         1 UNK         0.0934 
     88 H88        29.5135   -1.2063   -3.4379 H         1 UNK         0.0739 
     89 H89        27.5546   -1.3162   -2.4723 H         1 UNK         0.3093 
     90 H90        25.9371   -1.1392   -1.0600 H         1 UNK         0.0818 
     91 H91        24.8522   -0.1908    0.9231 H         1 UNK         0.0819 
     92 H92        26.5854   -0.2424    1.1956 H         1 UNK         0.0819 
     93 H93        25.8102    1.2857    0.8034 H         1 UNK         0.0819 
     94 H94        24.1739    0.8778   -1.1490 H         1 UNK         0.3041 
     95 H95        22.9443    1.6066   -2.7577 H         1 UNK         0.0784 
     96 H96        22.6939    2.4222   -5.1203 H         1 UNK         0.0793 
     97 H97        24.1148    3.0866   -4.3359 H         1 UNK         0.0793 
     98 H98        24.2914    1.7973   -5.5132 H         1 UNK         0.0793 
     99 H99        23.1002   -0.3814   -4.9586 H         1 UNK         0.3024 
    100 H100       21.6039   -2.9394   -3.0039 H         1 UNK         0.1171 
    101 H101       20.7712   -1.5852   -5.6323 H         1 UNK         0.0786 
    102 H102       19.7369   -1.8091   -4.2282 H         1 UNK         0.0786 
    103 H103       20.3206   -3.2090   -5.1117 H         1 UNK         0.0786 
    104 H104       22.8564   -2.9648   -5.5713 H         1 UNK         0.2977 
    105 H105       27.5041    0.8629   -4.0205 H         1 UNK         0.3127 
    106 H106       29.2602    2.8613   -5.4011 H         1 UNK         0.0770 
    107 H107       26.5183    3.2728   -4.0978 H         1 UNK         0.0814 
    108 H108       27.4012    4.4837   -5.0199 H         1 UNK         0.0814 
    109 H109       28.0515    3.8964   -3.4969 H         1 UNK         0.0814 
    110 H110       26.6889    0.4939   -5.7262 H         1 UNK         0.2983 
    111 H111       25.5493    1.4814   -8.1386 H         1 UNK         0.0947 
    112 H112       24.5039   -0.7265   -8.3001 H         1 UNK         0.0806 
    113 H113       24.4913   -0.2528   -6.6100 H         1 UNK         0.0806 
    114 H114       25.6708   -1.4253   -7.1941 H         1 UNK         0.0806 
    115 H115       28.3910   -0.5434   -7.5597 H         1 UNK         0.3000 
    116 H116       28.7657   -1.2694  -10.3770 H         1 UNK         0.0850 
    117 H117       30.5174   -1.6636   -7.8930 H         1 UNK         0.0810 
    118 H118       29.4376   -2.8642   -8.6048 H         1 UNK         0.0810 
    119 H119       30.8604   -2.3323   -9.4842 H         1 UNK         0.0810 
    120 H120       29.8892   -0.0775  -11.8160 H         1 UNK         0.3040 
    121 H121       30.8803    2.5157  -11.3045 H         1 UNK         0.0766 
    122 H122       30.0373    1.7764  -13.5207 H         1 UNK         0.0812 
    123 H123       31.3837    0.6475  -13.6873 H         1 UNK         0.0812 
    124 H124       31.6774    2.3804  -13.6729 H         1 UNK         0.0812 
    125 H125       32.4762   -0.5330  -10.9245 H         1 UNK         0.3205 
    126 H126       35.2134    0.3862  -11.0112 H         1 UNK         0.0754 
    127 H127       35.6683   -1.8344   -9.9610 H         1 UNK         0.0769 
    128 H128       34.5992   -2.0070  -11.3422 H         1 UNK         0.0769 
    129 H129       33.9486   -2.0880   -9.7032 H         1 UNK         0.0769 
    130 H130       32.6656    0.7270   -8.6410 H         1 UNK         0.2981 
    131 H131       34.5994    1.6529   -6.5896 H         1 UNK         0.0541 
    132 H132       31.5161    3.8970   -5.8801 H         1 UNK         0.3459 
    133 H133       31.7255    2.3211   -5.1573 H         1 UNK         0.3459 
    134 H134       32.1137   -0.0436   -6.0375 H         1 UNK         0.0612 
    135 H135       33.0640    0.7737   -4.8170 H         1 UNK         0.0612 
    136 H136       33.9279   -3.3349   -6.3910 H         1 UNK         0.0624 
    137 H137       32.7962   -2.2408   -7.1479 H         1 UNK         0.0624 
@<TRIPOS>BOND
     1    1    2 1    
     2    1   72 1    
     3    1   73 1    
     4    1   74 1    
     5    2    3 2    
     6    2    4 am   BACKBONE|DICT|INTERRES
     7    4    5 1    
     8    4   75 1    
     9    5    6 1    
    10    5   35 1    
    11    5   76 1    
    12    6    7 1    
    13    6   77 1    
    14    6   78 1    
    15    7    8 1    
    16    8    9 1    
    17    8   79 1    
    18    8   80 1    
    19    9   10 ar   
    20    9   14 ar   
    21   10   11 ar   
    22   10   81 1    
    23   11   12 ar   
    24   11   71 1    
    25   12   13 ar   
    26   12   82 1    
    27   13   14 ar   
    28   13   15 1    
    29   14   83 1    
    30   15   16 1    
    31   15   84 1    
    32   15   85 1    
    33   16   17 1    
    34   17   18 1    
    35   17   86 1    
    36   17   87 1    
    37   18   19 1    
    38   18   37 1    
    39   18   88 1    
    40   19   20 am   BACKBONE|DICT|INTERRES
    41   19   89 1    
    42   20   21 2    
    43   20   22 1    
    44   22   23 1    
    45   22   24 1    
    46   22   90 1    
    47   23   91 1    
    48   23   92 1    
    49   23   93 1    
    50   24   25 am   BACKBONE|DICT|INTERRES
    51   24   94 1    
    52   25   26 2    
    53   25   27 1    
    54   27   28 1    
    55   27   29 1    
    56   27   95 1    
    57   28   96 1    
    58   28   97 1    
    59   28   98 1    
    60   29   30 am   BACKBONE|DICT|INTERRES
    61   29   99 1    
    62   30   31 2    
    63   30   32 1    
    64   32   33 1    
    65   32   34 1    
    66   32  100 1    
    67   33  101 1    
    68   33  102 1    
    69   33  103 1    
    70   34   35 am   BACKBONE|DICT|INTERRES
    71   34  104 1    
    72   35   36 2    
    73   37   38 2    
    74   37   39 am   BACKBONE|DICT|INTERRES
    75   39   40 1    
    76   39  105 1    
    77   40   41 1    
    78   40   42 1    
    79   40  106 1    
    80   41  107 1    
    81   41  108 1    
    82   41  109 1    
    83   42   43 2    
    84   42   44 am   BACKBONE|DICT|INTERRES
    85   44   45 1    
    86   44  110 1    
    87   45   46 1    
    88   45   47 1    
    89   45  111 1    
    90   46  112 1    
    91   46  113 1    
    92   46  114 1    
    93   47   48 2    
    94   47   49 am   BACKBONE|DICT|INTERRES
    95   49   50 1    
    96   49  115 1    
    97   50   51 1    
    98   50   52 1    
    99   50  116 1    
   100   51  117 1    
   101   51  118 1    
   102   51  119 1    
   103   52   53 2    
   104   52   54 am   BACKBONE|DICT|INTERRES
   105   54   55 1    
   106   54  120 1    
   107   55   56 1    
   108   55   57 1    
   109   55  121 1    
   110   56  122 1    
   111   56  123 1    
   112   56  124 1    
   113   57   58 2    
   114   57   59 am   BACKBONE|DICT|INTERRES
   115   59   60 1    
   116   59  125 1    
   117   60   61 1    
   118   60   62 1    
   119   60  126 1    
   120   61  127 1    
   121   61  128 1    
   122   61  129 1    
   123   62   63 2    
   124   62   64 am   BACKBONE|DICT|INTERRES
   125   64   65 1    
   126   64  130 1    
   127   65   66 1    
   128   65   69 1    
   129   65  131 1    
   130   66   67 am   BACKBONE|DICT|INTERRES
   131   66   68 2    
   132   67  132 1    
   133   67  133 1    
   134   69   70 1    
   135   69  134 1    
   136   69  135 1    
   137   70   71 1    
   138   71  136 1    
   139   71  137 1    
@<TRIPOS>SUBSTRUCTURE
     1 UNK         1 GROUP             0       ****    0 ROOT    
