@<TRIPOS>MOLECULE
3R137
137   139    1
SMALL
USER_CHARGES


@<TRIPOS>ATOM
      1 CA         30.9437   -5.5746    1.4957 C.3       0 UNK        -0.2020 
      2 C          29.7772   -4.6782    1.1092 C.2       0 UNK         0.4855 
      3 O          28.9531   -4.3403    1.9607 O.2       0 UNK        -0.5197 
      4 N          29.6931   -4.2908   -0.1696 N.am      1 UNK        -0.4892 
      5 CA         28.6423   -3.4325   -0.7296 C.3       1 UNK         0.0835 
      6 C6         29.1106   -2.6963   -2.0135 C.3       12 UNK        -0.0855 
      7 S7         30.6183   -1.7005   -1.7540 S.3       12 UNK        -0.2931 
      8 C8         29.9315   -0.0938   -1.2338 C.3       12 UNK         0.0378 
      9 C9         29.1695    0.6159   -2.3463 C.ar      12 UNK        -0.0802 
     10 C10        29.8170    0.9562   -3.5384 C.ar      12 UNK        -0.0944 
     11 C11        29.1267    1.6211   -4.5548 C.ar      12 UNK        -0.0787 
     12 C12        27.7877    1.9718   -4.3656 C.ar      12 UNK        -0.0862 
     13 C13        27.1278    1.6353   -3.1808 C.ar      12 UNK        -0.0733 
     14 C14        27.8225    0.9545   -2.1755 C.ar      12 UNK        -0.0832 
     15 C15        25.6691    2.0189   -2.9803 C.3       12 UNK         0.0240 
     16 S16        24.5413    0.6776   -3.4725 S.3       12 UNK        -0.2522 
     17 C17        24.6143    0.7569   -5.2979 C.3       12 UNK        -0.0967 
     18 CA         25.4603   -0.3864   -5.9127 C.3       5 UNK         0.0660 
     19 N          24.9577   -1.6967   -5.5030 N.am      5 UNK        -0.4015 
     20 C          25.6137   -2.8569   -5.6036 C.2       4 UNK         0.4946 
     21 O          26.7423   -2.9698   -6.0862 O.2       4 UNK        -0.5353 
     22 CA         24.8872   -4.0836   -5.0203 C.3       4 UNK         0.0277 
     23 CB         25.7107   -5.3798   -5.1392 C.3       4 UNK        -0.1981 
     24 N          24.5458   -3.8557   -3.6124 N.am      4 UNK        -0.4209 
     25 C          23.4464   -3.2178   -3.1804 C.2       3 UNK         0.4942 
     26 O          22.5938   -2.7742   -3.9522 O.2       3 UNK        -0.5208 
     27 CA         23.2804   -2.9694   -1.6643 C.3       3 UNK         0.0250 
     28 CB         21.8227   -3.1686   -1.1969 C.3       3 UNK        -0.1990 
     29 N          24.2177   -3.7135   -0.8125 N.am      3 UNK        -0.4232 
     30 C          24.3152   -5.0433   -0.6588 C.2       2 UNK         0.4993 
     31 O          23.5358   -5.8522   -1.1648 O.2       2 UNK        -0.5286 
     32 CA         25.5142   -5.5495    0.1745 C.3       2 UNK         0.0209 
     33 CB         25.9100   -6.9957   -0.1928 C.3       2 UNK        -0.1931 
     34 N          26.7044   -4.6813    0.1227 N.am      2 UNK        -0.4546 
     35 C          27.3558   -4.2514   -0.9696 C.2       1 UNK         0.5154 
     36 O          26.9811   -4.4875   -2.1187 O.2       1 UNK        -0.5181 
     37 C          25.5027   -0.2695   -7.4493 C.2       5 UNK         0.5014 
     38 O          24.6507   -0.8408   -8.1359 O.2       5 UNK        -0.5248 
     39 N          26.4693    0.5005   -7.9553 N.am      6 UNK        -0.4434 
     40 CA         26.6891    0.7861   -9.3699 C.3       6 UNK         0.0363 
     41 CB         27.5340   -0.3378  -10.0068 C.3       6 UNK        -0.1936 
     42 C          27.3510    2.1672   -9.4998 C.2       6 UNK         0.5081 
     43 O          27.4947    2.8823   -8.5034 O.2       6 UNK        -0.5248 
     44 N          27.7275    2.5302  -10.7310 N.am      7 UNK        -0.4718 
     45 CA         28.3558    3.8019  -11.0934 C.3       7 UNK         0.0273 
     46 CB         28.2533    3.9806  -12.6199 C.3       7 UNK        -0.1935 
     47 C          29.8103    3.9209  -10.5939 C.2       7 UNK         0.5018 
     48 O          30.7426    3.7839  -11.3898 O.2       7 UNK        -0.5186 
     49 N          29.9684    4.1823   -9.2882 N.am      8 UNK        -0.4240 
     50 CA         31.2078    4.5226   -8.5755 C.3       8 UNK         0.0235 
     51 CB         31.6331    5.9688   -8.9141 C.3       8 UNK        -0.2000 
     52 C          32.3302    3.4922   -8.7943 C.2       8 UNK         0.4941 
     53 O          32.3323    2.4552   -8.1334 O.2       8 UNK        -0.5273 
     54 N          33.2418    3.7699   -9.7384 N.am      9 UNK        -0.4262 
     55 CA         34.3318    2.8831  -10.1598 C.3       9 UNK         0.0264 
     56 CB         35.1818    3.5950  -11.2241 C.3       9 UNK        -0.1955 
     57 C          33.8606    1.5104  -10.6767 C.2       9 UNK         0.5031 
     58 O          34.6108    0.5393  -10.5639 O.2       9 UNK        -0.5390 
     59 N          32.6184    1.4339  -11.1806 N.am      10 UNK        -0.4204 
     60 CA         31.9482    0.1903  -11.5733 C.3       10 UNK         0.0237 
     61 CB         30.6047    0.5262  -12.2388 C.3       10 UNK        -0.1985 
     62 C          31.7369   -0.8061  -10.4149 C.2       10 UNK         0.4970 
     63 O          31.5646   -1.9952  -10.6853 O.2       10 UNK        -0.4914 
     64 N          31.7640   -0.3270   -9.1627 N.am      11 UNK        -0.4285 
     65 CA         31.7094   -1.1606   -7.9510 C.3       11 UNK         0.1007 
     66 C          33.0326   -1.9247   -7.6495 C.2       11 UNK         0.5703 
     67 N          34.1431   -1.6407   -8.3235 N.am      11 UNK        -0.7361 
     68 O          33.0495   -2.8035   -6.7911 O.2       11 UNK        -0.4986 
     69 C69        31.2392   -0.3579   -6.7078 C.3       12 UNK        -0.0947 
     70 S70        29.6829    0.5404   -7.0125 S.3       12 UNK        -0.2240 
     71 C71        29.8156    1.9445   -5.8680 C.3       12 UNK         0.0194 
     72 H72        31.5969   -5.7822    0.6484 H         1 UNK         0.0906 
     73 H73        31.5395   -5.0992    2.2743 H         1 UNK         0.0906 
     74 H74        30.5746   -6.5247    1.8809 H         1 UNK         0.0906 
     75 H75        30.3925   -4.6005   -0.8297 H         1 UNK         0.3140 
     76 H76        28.3940   -2.6654    0.0076 H         1 UNK         0.1085 
     77 H77        28.3174   -2.0545   -2.4021 H         1 UNK         0.0836 
     78 H78        29.3250   -3.4141   -2.8079 H         1 UNK         0.0836 
     79 H79        30.7524    0.5474   -0.9099 H         1 UNK         0.0731 
     80 H80        29.2989   -0.2440   -0.3576 H         1 UNK         0.0731 
     81 H81        30.8549    0.6877   -3.6810 H         1 UNK         0.1312 
     82 H82        27.2573    2.4974   -5.1477 H         1 UNK         0.1406 
     83 H83        27.3125    0.6967   -1.2571 H         1 UNK         0.1631 
     84 H84        25.4283    2.9282   -3.5331 H         1 UNK         0.0717 
     85 H85        25.4940    2.2523   -1.9290 H         1 UNK         0.0717 
     86 H86        23.5894    0.7127   -5.6722 H         1 UNK         0.0934 
     87 H87        24.9973    1.7317   -5.6043 H         1 UNK         0.0934 
     88 H88        26.4836   -0.3019   -5.5397 H         1 UNK         0.0739 
     89 H89        24.0306   -1.7139   -5.0949 H         1 UNK         0.3093 
     90 H90        23.9704   -4.2238   -5.5972 H         1 UNK         0.0818 
     91 H91        26.6698   -5.2992   -4.6267 H         1 UNK         0.0819 
     92 H92        25.1757   -6.2302   -4.7162 H         1 UNK         0.0819 
     93 H93        25.9196   -5.6135   -6.1838 H         1 UNK         0.0819 
     94 H94        25.2533   -4.1375   -2.9385 H         1 UNK         0.3041 
     95 H95        23.5252   -1.9162   -1.5177 H         1 UNK         0.0784 
     96 H96        21.1473   -2.4913   -1.7211 H         1 UNK         0.0793 
     97 H97        21.4707   -4.1833   -1.3844 H         1 UNK         0.0793 
     98 H98        21.7161   -2.9671   -0.1310 H         1 UNK         0.0793 
     99 H99        24.9162   -3.1501   -0.3481 H         1 UNK         0.3024 
    100 H100       25.1758   -5.5516    1.2120 H         1 UNK         0.1171 
    101 H101       26.7400   -7.3475    0.4200 H         1 UNK         0.0786 
    102 H102       25.0795   -7.6850   -0.0348 H         1 UNK         0.0786 
    103 H103       26.2075   -7.0775   -1.2390 H         1 UNK         0.0786 
    104 H104       27.1363   -4.4680    1.0175 H         1 UNK         0.2977 
    105 H105       27.1065    0.9909   -7.3390 H         1 UNK         0.3127 
    106 H106       25.7232    0.8419   -9.8763 H         1 UNK         0.0770 
    107 H107       28.5477   -0.3599   -9.6060 H         1 UNK         0.0814 
    108 H108       27.6115   -0.2176  -11.0874 H         1 UNK         0.0814 
    109 H109       27.0886   -1.3170   -9.8306 H         1 UNK         0.0814 
    110 H110       27.5745    1.8813  -11.4891 H         1 UNK         0.2983 
    111 H111       27.7864    4.6106  -10.6292 H         1 UNK         0.0947 
    112 H112       28.7040    4.9235  -12.9332 H         1 UNK         0.0806 
    113 H113       27.2145    3.9956  -12.9499 H         1 UNK         0.0806 
    114 H114       28.7655    3.1816  -13.1576 H         1 UNK         0.0806 
    115 H115       29.1318    4.1221   -8.7162 H         1 UNK         0.3000 
    116 H116       30.9724    4.4910   -7.5106 H         1 UNK         0.0850 
    117 H117       32.5617    6.2362   -8.4076 H         1 UNK         0.0810 
    118 H118       30.8763    6.6820   -8.5869 H         1 UNK         0.0810 
    119 H119       31.7813    6.1204   -9.9838 H         1 UNK         0.0810 
    120 H120       33.1287    4.6265  -10.2612 H         1 UNK         0.3040 
    121 H121       34.9584    2.6998   -9.2846 H         1 UNK         0.0766 
    122 H122       36.0172    2.9681  -11.5396 H         1 UNK         0.0812 
    123 H123       35.6040    4.5240  -10.8404 H         1 UNK         0.0812 
    124 H124       34.5978    3.8321  -12.1144 H         1 UNK         0.0812 
    125 H125       32.0675    2.2870  -11.2376 H         1 UNK         0.3205 
    126 H126       32.5824   -0.3032  -12.3125 H         1 UNK         0.0754 
    127 H127       29.9248    1.0053  -11.5360 H         1 UNK         0.0769 
    128 H128       30.1126   -0.3754  -12.6063 H         1 UNK         0.0769 
    129 H129       30.7360    1.1952  -13.0895 H         1 UNK         0.0769 
    130 H130       31.9142    0.6633   -8.9997 H         1 UNK         0.2981 
    131 H131       30.9581   -1.9326   -8.1283 H         1 UNK         0.0541 
    132 H132       34.1518   -0.9239   -9.0384 H         1 UNK         0.3459 
    133 H133       34.9866   -2.1508   -8.1158 H         1 UNK         0.3459 
    134 H134       32.0119    0.3520   -6.4088 H         1 UNK         0.0612 
    135 H135       31.0815   -1.0213   -5.8555 H         1 UNK         0.0612 
    136 H136       29.3479    2.8141   -6.3315 H         1 UNK         0.0624 
    137 H137       30.8591    2.2148   -5.7024 H         1 UNK         0.0624 
@<TRIPOS>BOND
     1    1    2 1    
     2    1   72 1    
     3    1   73 1    
     4    1   74 1    
     5    2    3 2    
     6    2    4 am   BACKBONE|DICT|INTERRES
     7    4    5 1    
     8    4   75 1    
     9    5    6 1    
    10    5   35 1    
    11    5   76 1    
    12    6    7 1    
    13    6   77 1    
    14    6   78 1    
    15    7    8 1    
    16    8    9 1    
    17    8   79 1    
    18    8   80 1    
    19    9   10 ar   
    20    9   14 ar   
    21   10   11 ar   
    22   10   81 1    
    23   11   12 ar   
    24   11   71 1    
    25   12   13 ar   
    26   12   82 1    
    27   13   14 ar   
    28   13   15 1    
    29   14   83 1    
    30   15   16 1    
    31   15   84 1    
    32   15   85 1    
    33   16   17 1    
    34   17   18 1    
    35   17   86 1    
    36   17   87 1    
    37   18   19 1    
    38   18   37 1    
    39   18   88 1    
    40   19   20 am   BACKBONE|DICT|INTERRES
    41   19   89 1    
    42   20   21 2    
    43   20   22 1    
    44   22   23 1    
    45   22   24 1    
    46   22   90 1    
    47   23   91 1    
    48   23   92 1    
    49   23   93 1    
    50   24   25 am   BACKBONE|DICT|INTERRES
    51   24   94 1    
    52   25   26 2    
    53   25   27 1    
    54   27   28 1    
    55   27   29 1    
    56   27   95 1    
    57   28   96 1    
    58   28   97 1    
    59   28   98 1    
    60   29   30 am   BACKBONE|DICT|INTERRES
    61   29   99 1    
    62   30   31 2    
    63   30   32 1    
    64   32   33 1    
    65   32   34 1    
    66   32  100 1    
    67   33  101 1    
    68   33  102 1    
    69   33  103 1    
    70   34   35 am   BACKBONE|DICT|INTERRES
    71   34  104 1    
    72   35   36 2    
    73   37   38 2    
    74   37   39 am   BACKBONE|DICT|INTERRES
    75   39   40 1    
    76   39  105 1    
    77   40   41 1    
    78   40   42 1    
    79   40  106 1    
    80   41  107 1    
    81   41  108 1    
    82   41  109 1    
    83   42   43 2    
    84   42   44 am   BACKBONE|DICT|INTERRES
    85   44   45 1    
    86   44  110 1    
    87   45   46 1    
    88   45   47 1    
    89   45  111 1    
    90   46  112 1    
    91   46  113 1    
    92   46  114 1    
    93   47   48 2    
    94   47   49 am   BACKBONE|DICT|INTERRES
    95   49   50 1    
    96   49  115 1    
    97   50   51 1    
    98   50   52 1    
    99   50  116 1    
   100   51  117 1    
   101   51  118 1    
   102   51  119 1    
   103   52   53 2    
   104   52   54 am   BACKBONE|DICT|INTERRES
   105   54   55 1    
   106   54  120 1    
   107   55   56 1    
   108   55   57 1    
   109   55  121 1    
   110   56  122 1    
   111   56  123 1    
   112   56  124 1    
   113   57   58 2    
   114   57   59 am   BACKBONE|DICT|INTERRES
   115   59   60 1    
   116   59  125 1    
   117   60   61 1    
   118   60   62 1    
   119   60  126 1    
   120   61  127 1    
   121   61  128 1    
   122   61  129 1    
   123   62   63 2    
   124   62   64 am   BACKBONE|DICT|INTERRES
   125   64   65 1    
   126   64  130 1    
   127   65   66 1    
   128   65   69 1    
   129   65  131 1    
   130   66   67 am   BACKBONE|DICT|INTERRES
   131   66   68 2    
   132   67  132 1    
   133   67  133 1    
   134   69   70 1    
   135   69  134 1    
   136   69  135 1    
   137   70   71 1    
   138   71  136 1    
   139   71  137 1    
@<TRIPOS>SUBSTRUCTURE
     1 UNK         1 GROUP             0       ****    0 ROOT    
