@<TRIPOS>MOLECULE
3R137
137   139    1
SMALL
USER_CHARGES


@<TRIPOS>ATOM
      1 CA         28.0796   -7.1150    4.0553 C.3       0 UNK        -0.2020 
      2 C          28.4256   -5.7558    3.4654 C.2       0 UNK         0.4855 
      3 O          28.7610   -4.8331    4.2096 O.2       0 UNK        -0.5197 
      4 N          28.3568   -5.6290    2.1350 N.am      1 UNK        -0.4892 
      5 CA         28.5796   -4.3824    1.3956 C.3       1 UNK         0.0835 
      6 C6         29.1186   -4.6623   -0.0362 C.3       12 UNK        -0.0855 
      7 S7         28.0255   -5.6819   -1.0920 S.3       12 UNK        -0.2931 
      8 C8         27.2391   -4.4411   -2.1716 C.3       12 UNK         0.0378 
      9 C9         28.1765   -3.9199   -3.2529 C.ar      12 UNK        -0.0802 
     10 C10        28.8673   -2.7151   -3.0785 C.ar      12 UNK        -0.0944 
     11 C11        29.7177   -2.2338   -4.0770 C.ar      12 UNK        -0.0787 
     12 C12        29.8856   -2.9726   -5.2484 C.ar      12 UNK        -0.0862 
     13 C13        29.1560   -4.1430   -5.4635 C.ar      12 UNK        -0.0733 
     14 C14        28.3171   -4.6238   -4.4539 C.ar      12 UNK        -0.0832 
     15 C15        29.2581   -4.8694   -6.7961 C.3       12 UNK         0.0240 
     16 S16        27.9537   -4.3365   -7.9565 S.3       12 UNK        -0.2522 
     17 C17        28.4559   -2.6249   -8.3637 C.3       12 UNK        -0.0967 
     18 CA         27.3452   -1.5698   -8.1241 C.3       5 UNK         0.0660 
     19 N          26.7449   -1.6583   -6.7862 N.am      5 UNK        -0.4015 
     20 C          25.4314   -1.5468   -6.5464 C.2       4 UNK         0.4946 
     21 O          24.5926   -1.3157   -7.4183 O.2       4 UNK        -0.5353 
     22 CA         24.9664   -1.6961   -5.0881 C.3       4 UNK         0.0277 
     23 CB         24.7472   -3.1771   -4.7416 C.3       4 UNK        -0.1981 
     24 N          25.8566   -1.0789   -4.0982 N.am      4 UNK        -0.4209 
     25 C          26.1102    0.2365   -4.0207 C.2       3 UNK         0.4942 
     26 O          25.7163    1.0487   -4.8570 O.2       3 UNK        -0.5208 
     27 CA         26.8897    0.7198   -2.7856 C.3       3 UNK         0.0250 
     28 CB         26.8278    2.2466   -2.5842 C.3       3 UNK        -0.1990 
     29 N          26.3964    0.0398   -1.5866 N.am      3 UNK        -0.4232 
     30 C          27.1587   -0.3691   -0.5661 C.2       2 UNK         0.4993 
     31 O          28.3717   -0.1547   -0.4959 O.2       2 UNK        -0.5286 
     32 CA         26.4995   -1.2239    0.5312 C.3       2 UNK         0.0209 
     33 CB         25.0840   -1.7289    0.1423 C.3       2 UNK        -0.1931 
     34 N          27.4635   -2.3002    0.7783 N.am      2 UNK        -0.4546 
     35 C          27.3263   -3.4729    1.4091 C.2       1 UNK         0.5154 
     36 O          26.2885   -3.8464    1.9622 O.2       1 UNK        -0.5181 
     37 C          27.8330   -0.1383   -8.4495 C.2       5 UNK         0.5014 
     38 O          28.5363    0.0475   -9.4468 O.2       5 UNK        -0.5248 
     39 N          27.4500    0.8671   -7.6433 N.am      6 UNK        -0.4434 
     40 CA         27.7941    2.2781   -7.8610 C.3       6 UNK         0.0363 
     41 CB         27.4238    3.1105   -6.6263 C.3       6 UNK        -0.1936 
     42 C          27.1550    2.8741   -9.1267 C.2       6 UNK         0.5081 
     43 O          27.7034    3.8241   -9.6823 O.2       6 UNK        -0.5248 
     44 N          26.0596    2.2695   -9.6100 N.am      7 UNK        -0.4718 
     45 CA         25.4383    2.5675  -10.9057 C.3       7 UNK         0.0273 
     46 CB         24.1181    1.7893  -11.0219 C.3       7 UNK        -0.1935 
     47 C          26.3522    2.2625  -12.1105 C.2       7 UNK         0.5018 
     48 O          26.1976    2.8940  -13.1559 O.2       7 UNK        -0.5186 
     49 N          27.2985    1.3288  -11.9344 N.am      8 UNK        -0.4240 
     50 CA         28.3587    1.0052  -12.8916 C.3       8 UNK         0.0235 
     51 CB         28.5271   -0.5249  -12.9329 C.3       8 UNK        -0.2000 
     52 C          29.6917    1.6923  -12.5312 C.2       8 UNK         0.4941 
     53 O          30.6968    1.4174  -13.1870 O.2       8 UNK        -0.5273 
     54 N          29.6939    2.5378  -11.4860 N.am      9 UNK        -0.4262 
     55 CA         30.8371    3.2362  -10.8814 C.3       9 UNK         0.0264 
     56 CB         31.4677    4.2316  -11.8780 C.3       9 UNK        -0.1955 
     57 C          31.8872    2.3050  -10.2408 C.2       9 UNK         0.5031 
     58 O          32.9912    2.7620   -9.9372 O.2       9 UNK        -0.5390 
     59 N          31.5387    1.0294  -10.0143 N.am      10 UNK        -0.4204 
     60 CA         32.4547   -0.0027   -9.5183 C.3       10 UNK         0.0237 
     61 CB         31.8251   -1.3847   -9.7380 C.3       10 UNK        -0.1985 
     62 C          32.8726    0.1851   -8.0497 C.2       10 UNK         0.4970 
     63 O          33.9294   -0.3144   -7.6620 O.2       10 UNK        -0.4914 
     64 N          32.0583    0.9079   -7.2701 N.am      11 UNK        -0.4285 
     65 CA         32.3630    1.3015   -5.8853 C.3       11 UNK         0.1007 
     66 C          33.3927    2.4648   -5.7672 C.2       11 UNK         0.5703 
     67 N          33.8037    3.1144   -6.8520 N.am      11 UNK        -0.7361 
     68 O          33.8361    2.7793   -4.6654 O.2       11 UNK        -0.4986 
     69 C69        31.0816    1.6027   -5.0596 C.3       12 UNK        -0.0947 
     70 S70        29.8301    0.2837   -5.1607 S.3       12 UNK        -0.2240 
     71 C71        30.4412   -0.9053   -3.9253 C.3       12 UNK         0.0194 
     72 H72        27.2325   -7.0239    4.7347 H         1 UNK         0.0906 
     73 H73        28.9268   -7.5076    4.6170 H         1 UNK         0.0906 
     74 H74        27.8190   -7.8401    3.2843 H         1 UNK         0.0906 
     75 H75        28.0412   -6.4065    1.5715 H         1 UNK         0.3140 
     76 H76        29.3565   -3.8211    1.9205 H         1 UNK         0.1085 
     77 H77        30.0660   -5.1973    0.0469 H         1 UNK         0.0836 
     78 H78        29.3759   -3.7351   -0.5463 H         1 UNK         0.0836 
     79 H79        26.3649   -4.8980   -2.6377 H         1 UNK         0.0731 
     80 H80        26.8583   -3.6182   -1.5707 H         1 UNK         0.0731 
     81 H81        28.7464   -2.1492   -2.1679 H         1 UNK         0.1312 
     82 H82        30.5602   -2.6043   -6.0085 H         1 UNK         0.1406 
     83 H83        27.7611   -5.5388   -4.6092 H         1 UNK         0.1631 
     84 H84        29.1693   -5.9450   -6.6364 H         1 UNK         0.0717 
     85 H85        30.2380   -4.7093   -7.2488 H         1 UNK         0.0717 
     86 H86        29.3509   -2.3591   -7.8086 H         1 UNK         0.0934 
     87 H87        28.7502   -2.6210   -9.4151 H         1 UNK         0.0934 
     88 H88        26.5724   -1.7797   -8.8665 H         1 UNK         0.0739 
     89 H89        27.3736   -1.8504   -6.0188 H         1 UNK         0.3093 
     90 H90        24.0018   -1.1901   -5.0067 H         1 UNK         0.0818 
     91 H91        24.0103   -3.6250   -5.4098 H         1 UNK         0.0819 
     92 H92        25.6641   -3.7562   -4.8437 H         1 UNK         0.0819 
     93 H93        24.3761   -3.3016   -3.7242 H         1 UNK         0.0819 
     94 H94        26.2437   -1.6872   -3.3930 H         1 UNK         0.3041 
     95 H95        27.9305    0.4428   -2.9555 H         1 UNK         0.0784 
     96 H96        27.2334    2.7745   -3.4472 H         1 UNK         0.0793 
     97 H97        25.8033    2.5912   -2.4396 H         1 UNK         0.0793 
     98 H98        27.4117    2.5550   -1.7169 H         1 UNK         0.0793 
     99 H99        25.4096   -0.1811   -1.5766 H         1 UNK         0.3024 
    100 H100       26.4283   -0.6106    1.4313 H         1 UNK         0.1171 
    101 H101       24.4107   -0.8985   -0.0732 H         1 UNK         0.0786 
    102 H102       25.0980   -2.3823   -0.7296 H         1 UNK         0.0786 
    103 H103       24.6128   -2.2762    0.9574 H         1 UNK         0.0786 
    104 H104       28.3735   -2.0643    0.3988 H         1 UNK         0.2977 
    105 H105       26.8683    0.6634   -6.8397 H         1 UNK         0.3127 
    106 H106       28.8769    2.3355   -7.9892 H         1 UNK         0.0770 
    107 H107       26.3488    3.1057   -6.4428 H         1 UNK         0.0814 
    108 H108       27.7282    4.1505   -6.7508 H         1 UNK         0.0814 
    109 H109       27.9217    2.7334   -5.7338 H         1 UNK         0.0814 
    110 H110       25.6659    1.5045   -9.0805 H         1 UNK         0.2983 
    111 H111       25.2135    3.6362  -10.9311 H         1 UNK         0.0947 
    112 H112       24.2787    0.7111  -10.9799 H         1 UNK         0.0806 
    113 H113       23.6181    2.0078  -11.9667 H         1 UNK         0.0806 
    114 H114       23.4268    2.0578  -10.2228 H         1 UNK         0.0806 
    115 H115       27.3720    0.8736  -11.0316 H         1 UNK         0.3000 
    116 H116       28.0797    1.3452  -13.8911 H         1 UNK         0.0850 
    117 H117       29.2655   -0.8191  -13.6799 H         1 UNK         0.0810 
    118 H118       27.5916   -1.0195  -13.1942 H         1 UNK         0.0810 
    119 H119       28.8596   -0.9224  -11.9731 H         1 UNK         0.0810 
    120 H120       28.8068    2.7315  -11.0344 H         1 UNK         0.3040 
    121 H121       30.4252    3.8208  -10.0578 H         1 UNK         0.0766 
    122 H122       31.9720    3.7205  -12.6984 H         1 UNK         0.0812 
    123 H123       32.2095    4.8621  -11.3862 H         1 UNK         0.0812 
    124 H124       30.7157    4.8944  -12.3059 H         1 UNK         0.0812 
    125 H125       30.5939    0.7366  -10.2329 H         1 UNK         0.3205 
    126 H126       33.3666    0.0484  -10.1173 H         1 UNK         0.0754 
    127 H127       32.4869   -2.1804   -9.3929 H         1 UNK         0.0769 
    128 H128       31.6205   -1.5657  -10.7935 H         1 UNK         0.0769 
    129 H129       30.8885   -1.4771   -9.1949 H         1 UNK         0.0769 
    130 H130       31.2037    1.2708   -7.6617 H         1 UNK         0.2981 
    131 H131       32.8469    0.4462   -5.4107 H         1 UNK         0.0541 
    132 H132       34.4736    3.8600   -6.7500 H         1 UNK         0.3459 
    133 H133       33.4684    2.8650   -7.7732 H         1 UNK         0.3459 
    134 H134       30.6150    2.5245   -5.4116 H         1 UNK         0.0612 
    135 H135       31.3264    1.7669   -4.0086 H         1 UNK         0.0612 
    136 H136       30.3051   -0.4916   -2.9247 H         1 UNK         0.0624 
    137 H137       31.5115   -1.0644   -4.0608 H         1 UNK         0.0624 
@<TRIPOS>BOND
     1    1    2 1    
     2    1   72 1    
     3    1   73 1    
     4    1   74 1    
     5    2    3 2    
     6    2    4 am   BACKBONE|DICT|INTERRES
     7    4    5 1    
     8    4   75 1    
     9    5    6 1    
    10    5   35 1    
    11    5   76 1    
    12    6    7 1    
    13    6   77 1    
    14    6   78 1    
    15    7    8 1    
    16    8    9 1    
    17    8   79 1    
    18    8   80 1    
    19    9   10 ar   
    20    9   14 ar   
    21   10   11 ar   
    22   10   81 1    
    23   11   12 ar   
    24   11   71 1    
    25   12   13 ar   
    26   12   82 1    
    27   13   14 ar   
    28   13   15 1    
    29   14   83 1    
    30   15   16 1    
    31   15   84 1    
    32   15   85 1    
    33   16   17 1    
    34   17   18 1    
    35   17   86 1    
    36   17   87 1    
    37   18   19 1    
    38   18   37 1    
    39   18   88 1    
    40   19   20 am   BACKBONE|DICT|INTERRES
    41   19   89 1    
    42   20   21 2    
    43   20   22 1    
    44   22   23 1    
    45   22   24 1    
    46   22   90 1    
    47   23   91 1    
    48   23   92 1    
    49   23   93 1    
    50   24   25 am   BACKBONE|DICT|INTERRES
    51   24   94 1    
    52   25   26 2    
    53   25   27 1    
    54   27   28 1    
    55   27   29 1    
    56   27   95 1    
    57   28   96 1    
    58   28   97 1    
    59   28   98 1    
    60   29   30 am   BACKBONE|DICT|INTERRES
    61   29   99 1    
    62   30   31 2    
    63   30   32 1    
    64   32   33 1    
    65   32   34 1    
    66   32  100 1    
    67   33  101 1    
    68   33  102 1    
    69   33  103 1    
    70   34   35 am   BACKBONE|DICT|INTERRES
    71   34  104 1    
    72   35   36 2    
    73   37   38 2    
    74   37   39 am   BACKBONE|DICT|INTERRES
    75   39   40 1    
    76   39  105 1    
    77   40   41 1    
    78   40   42 1    
    79   40  106 1    
    80   41  107 1    
    81   41  108 1    
    82   41  109 1    
    83   42   43 2    
    84   42   44 am   BACKBONE|DICT|INTERRES
    85   44   45 1    
    86   44  110 1    
    87   45   46 1    
    88   45   47 1    
    89   45  111 1    
    90   46  112 1    
    91   46  113 1    
    92   46  114 1    
    93   47   48 2    
    94   47   49 am   BACKBONE|DICT|INTERRES
    95   49   50 1    
    96   49  115 1    
    97   50   51 1    
    98   50   52 1    
    99   50  116 1    
   100   51  117 1    
   101   51  118 1    
   102   51  119 1    
   103   52   53 2    
   104   52   54 am   BACKBONE|DICT|INTERRES
   105   54   55 1    
   106   54  120 1    
   107   55   56 1    
   108   55   57 1    
   109   55  121 1    
   110   56  122 1    
   111   56  123 1    
   112   56  124 1    
   113   57   58 2    
   114   57   59 am   BACKBONE|DICT|INTERRES
   115   59   60 1    
   116   59  125 1    
   117   60   61 1    
   118   60   62 1    
   119   60  126 1    
   120   61  127 1    
   121   61  128 1    
   122   61  129 1    
   123   62   63 2    
   124   62   64 am   BACKBONE|DICT|INTERRES
   125   64   65 1    
   126   64  130 1    
   127   65   66 1    
   128   65   69 1    
   129   65  131 1    
   130   66   67 am   BACKBONE|DICT|INTERRES
   131   66   68 2    
   132   67  132 1    
   133   67  133 1    
   134   69   70 1    
   135   69  134 1    
   136   69  135 1    
   137   70   71 1    
   138   71  136 1    
   139   71  137 1    
@<TRIPOS>SUBSTRUCTURE
     1 UNK         1 GROUP             0       ****    0 ROOT    
