@<TRIPOS>MOLECULE
3R137
137   139    1
SMALL
USER_CHARGES


@<TRIPOS>ATOM
      1 CA         25.3371   -5.5608   -2.7929 C.3       0 UNK        -0.2020 
      2 C          25.6933   -4.3046   -2.0127 C.2       0 UNK         0.4855 
      3 O          24.8975   -3.8474   -1.1921 O.2       0 UNK        -0.5197 
      4 N          26.8883   -3.7527   -2.2513 N.am      1 UNK        -0.4892 
      5 CA         27.3829   -2.5380   -1.5969 C.3       1 UNK         0.0835 
      6 C6         28.9212   -2.4145   -1.6998 C.3       12 UNK        -0.0855 
      7 S7         29.8295   -3.7610   -0.8701 S.3       12 UNK        -0.2931 
      8 C8         31.4349   -3.7107   -1.7531 C.3       12 UNK         0.0378 
      9 C9         31.3061   -3.8810   -3.2658 C.ar      12 UNK        -0.0802 
     10 C10        32.0328   -3.0598   -4.1366 C.ar      12 UNK        -0.0944 
     11 C11        31.8786   -3.1693   -5.5281 C.ar      12 UNK        -0.0787 
     12 C12        30.9747   -4.1098   -6.0329 C.ar      12 UNK        -0.0862 
     13 C13        30.2486   -4.9375   -5.1735 C.ar      12 UNK        -0.0733 
     14 C14        30.4379   -4.8369   -3.7966 C.ar      12 UNK        -0.0832 
     15 C15        29.2231   -5.9170   -5.7110 C.3       12 UNK         0.0240 
     16 S16        27.5679   -5.1632   -5.7020 S.3       12 UNK        -0.2522 
     17 C17        27.5450   -4.3242   -7.3205 C.3       12 UNK        -0.0967 
     18 CA         27.1197   -2.8364   -7.2848 C.3       5 UNK         0.0660 
     19 N          25.9046   -2.5952   -6.5060 N.am      5 UNK        -0.4015 
     20 C          25.1403   -1.5069   -6.6441 C.2       4 UNK         0.4946 
     21 O          25.4541   -0.5631   -7.3728 O.2       4 UNK        -0.5353 
     22 CA         23.8261   -1.4364   -5.8564 C.3       4 UNK         0.0277 
     23 CB         23.5668   -2.6322   -4.9169 C.3       4 UNK        -0.1981 
     24 N          23.8482   -0.2018   -5.0854 N.am      4 UNK        -0.4209 
     25 C          22.8271    0.6450   -4.9131 C.2       3 UNK         0.4942 
     26 O          21.7024    0.4620   -5.3823 O.2       3 UNK        -0.5208 
     27 CA         23.1143    1.9270   -4.0993 C.3       3 UNK         0.0250 
     28 CB         21.9111    2.3613   -3.2346 C.3       3 UNK        -0.1990 
     29 N          24.3501    1.8611   -3.3018 N.am      3 UNK        -0.4232 
     30 C          24.6130    1.0276   -2.2835 C.2       2 UNK         0.4993 
     31 O          23.7957    0.2506   -1.7855 O.2       2 UNK        -0.5286 
     32 CA         26.0484    1.0720   -1.7377 C.3       2 UNK         0.0209 
     33 CB         26.1332    2.0037   -0.5178 C.3       2 UNK        -0.1931 
     34 N          26.5463   -0.2548   -1.3658 N.am      2 UNK        -0.4546 
     35 C          26.7336   -1.2804   -2.2091 C.2       1 UNK         0.5154 
     36 O          26.5135   -1.2264   -3.4260 O.2       1 UNK        -0.5181 
     37 C          28.2780   -1.8468   -7.0229 C.2       5 UNK         0.5014 
     38 O          29.0817   -1.6676   -7.9371 O.2       5 UNK        -0.5248 
     39 N          28.3177   -1.1576   -5.8673 N.am      6 UNK        -0.4434 
     40 CA         29.2557   -0.0434   -5.6390 C.3       6 UNK         0.0363 
     41 CB         29.6017    0.1019   -4.1493 C.3       6 UNK        -0.1936 
     42 C          28.7858    1.3024   -6.2215 C.2       6 UNK         0.5081 
     43 O          29.5569    2.2631   -6.1820 O.2       6 UNK        -0.5248 
     44 N          27.5539    1.3680   -6.7455 N.am      7 UNK        -0.4718 
     45 CA         27.0942    2.4724   -7.5886 C.3       7 UNK         0.0273 
     46 CB         25.6179    2.7859   -7.2909 C.3       7 UNK        -0.1935 
     47 C          27.3039    2.1319   -9.0737 C.2       7 UNK         0.5018 
     48 O          27.6466    3.0254   -9.8486 O.2       7 UNK        -0.5186 
     49 N          27.0991    0.8570   -9.4449 N.am      8 UNK        -0.4240 
     50 CA         27.2941    0.3431  -10.8041 C.3       8 UNK         0.0235 
     51 CB         26.6635   -1.0528  -10.9357 C.3       8 UNK        -0.2000 
     52 C          28.7731    0.3182  -11.2287 C.2       8 UNK         0.4941 
     53 O          29.0974    0.8317  -12.3007 O.2       8 UNK        -0.5273 
     54 N          29.6377   -0.2643  -10.3878 N.am      9 UNK        -0.4262 
     55 CA         31.0928   -0.2366  -10.5328 C.3       9 UNK         0.0264 
     56 CB         31.6605   -1.6337  -10.2350 C.3       9 UNK        -0.1955 
     57 C          31.6515    0.8014   -9.5533 C.2       9 UNK         0.5031 
     58 O          31.0829    0.9883   -8.4782 O.2       9 UNK        -0.5390 
     59 N          32.7545    1.4594   -9.9269 N.am      10 UNK        -0.4204 
     60 CA         33.3228    2.6303   -9.2456 C.3       10 UNK         0.0237 
     61 CB         34.2432    3.3717  -10.2355 C.3       10 UNK        -0.1985 
     62 C          34.0150    2.3483   -7.8910 C.2       10 UNK         0.4970 
     63 O          35.0999    2.8803   -7.6449 O.2       10 UNK        -0.4914 
     64 N          33.3834    1.5475   -7.0254 N.am      11 UNK        -0.4285 
     65 CA         33.7955    1.3632   -5.6245 C.3       11 UNK         0.1007 
     66 C          33.3274    2.5244   -4.7046 C.2       11 UNK         0.5703 
     67 N          32.1973    3.1693   -4.9730 N.am      11 UNK        -0.7361 
     68 O          34.0081    2.8517   -3.7356 O.2       11 UNK        -0.4986 
     69 C69        33.3548   -0.0012   -5.0403 C.3       12 UNK        -0.0947 
     70 S70        34.1044   -1.4200   -5.9057 S.3       12 UNK        -0.2240 
     71 C71        32.6280   -2.2889   -6.5346 C.3       12 UNK         0.0194 
     72 H72        24.7876   -6.2565   -2.1592 H         1 UNK         0.0906 
     73 H73        24.7102   -5.3112   -3.6480 H         1 UNK         0.0906 
     74 H74        26.2271   -6.0746   -3.1550 H         1 UNK         0.0906 
     75 H75        27.4926   -4.1467   -2.9580 H         1 UNK         0.3140 
     76 H76        27.1116   -2.5855   -0.5396 H         1 UNK         0.1085 
     77 H77        29.2725   -1.4703   -1.2781 H         1 UNK         0.0836 
     78 H78        29.1950   -2.4072   -2.7531 H         1 UNK         0.0836 
     79 H79        31.9278   -2.7665   -1.5162 H         1 UNK         0.0731 
     80 H80        32.0769   -4.5020   -1.3642 H         1 UNK         0.0731 
     81 H81        32.7071   -2.3287   -3.7173 H         1 UNK         0.1312 
     82 H82        30.8247   -4.1850   -7.1012 H         1 UNK         0.1406 
     83 H83        29.8720   -5.4767   -3.1331 H         1 UNK         0.1631 
     84 H84        29.2045   -6.8114   -5.0862 H         1 UNK         0.0717 
     85 H85        29.4888   -6.2556   -6.7136 H         1 UNK         0.0717 
     86 H86        28.5053   -4.4352   -7.8268 H         1 UNK         0.0934 
     87 H87        26.8383   -4.8760   -7.9426 H         1 UNK         0.0934 
     88 H88        26.8285   -2.6178   -8.3129 H         1 UNK         0.0739 
     89 H89        25.6301   -3.3241   -5.8640 H         1 UNK         0.3093 
     90 H90        23.0261   -1.3962   -6.5984 H         1 UNK         0.0818 
     91 H91        22.6085   -2.5238   -4.4085 H         1 UNK         0.0819 
     92 H92        23.5285   -3.5740   -5.4656 H         1 UNK         0.0819 
     93 H93        24.3330   -2.7149   -4.1462 H         1 UNK         0.0819 
     94 H94        24.7402    0.0268   -4.6684 H         1 UNK         0.3041 
     95 H95        23.2793    2.7112   -4.8396 H         1 UNK         0.0784 
     96 H96        21.0387    2.5703   -3.8550 H         1 UNK         0.0793 
     97 H97        21.6217    1.5880   -2.5225 H         1 UNK         0.0793 
     98 H98        22.1319    3.2693   -2.6736 H         1 UNK         0.0793 
     99 H99        25.0874    2.4805   -3.6099 H         1 UNK         0.3024 
    100 H100       26.7079    1.4599   -2.5174 H         1 UNK         0.1171 
    101 H101       25.7954    3.0102   -0.7691 H         1 UNK         0.0786 
    102 H102       27.1569    2.0900   -0.1527 H         1 UNK         0.0786 
    103 H103       25.5110    1.6480    0.3046 H         1 UNK         0.0786 
    104 H104       26.7447   -0.3926   -0.3855 H         1 UNK         0.2977 
    105 H105       27.6214   -1.3312   -5.1481 H         1 UNK         0.3127 
    106 H106       30.1890   -0.2693   -6.1554 H         1 UNK         0.0770 
    107 H107       28.7170    0.2439   -3.5342 H         1 UNK         0.0814 
    108 H108       30.2469    0.9644   -3.9768 H         1 UNK         0.0814 
    109 H109       30.1536   -0.7647   -3.7940 H         1 UNK         0.0814 
    110 H110       26.9675    0.5406   -6.7377 H         1 UNK         0.2983 
    111 H111       27.6717    3.3744   -7.3735 H         1 UNK         0.0947 
    112 H112       25.2806    3.6420   -7.8766 H         1 UNK         0.0806 
    113 H113       25.4722    3.0356   -6.2405 H         1 UNK         0.0806 
    114 H114       24.9596    1.9519   -7.5329 H         1 UNK         0.0806 
    115 H115       26.7392    0.2100   -8.7526 H         1 UNK         0.3000 
    116 H116       26.7637    1.0135  -11.4841 H         1 UNK         0.0850 
    117 H117       26.6542   -1.3727  -11.9784 H         1 UNK         0.0810 
    118 H118       25.6317   -1.0632  -10.5835 H         1 UNK         0.0810 
    119 H119       27.2213   -1.8037  -10.3775 H         1 UNK         0.0810 
    120 H120       29.3065   -0.6237   -9.4942 H         1 UNK         0.3040 
    121 H121       31.3738    0.0456  -11.5496 H         1 UNK         0.0766 
    122 H122       32.7496   -1.6383  -10.2939 H         1 UNK         0.0812 
    123 H123       31.2925   -2.3679  -10.9516 H         1 UNK         0.0812 
    124 H124       31.3846   -1.9781   -9.2390 H         1 UNK         0.0812 
    125 H125       33.1928    1.2014  -10.7996 H         1 UNK         0.3205 
    126 H126       32.4935    3.3030   -9.0158 H         1 UNK         0.0754 
    127 H127       34.6145    4.3042   -9.8076 H         1 UNK         0.0769 
    128 H128       33.7139    3.6334  -11.1520 H         1 UNK         0.0769 
    129 H129       35.1104    2.7685  -10.5074 H         1 UNK         0.0769 
    130 H130       32.4741    1.1831   -7.3013 H         1 UNK         0.2981 
    131 H131       34.8870    1.3754   -5.5924 H         1 UNK         0.0541 
    132 H132       31.5748    2.8654   -5.7116 H         1 UNK         0.3459 
    133 H133       31.9147    3.9248   -4.3702 H         1 UNK         0.3459 
    134 H134       32.2697   -0.0886   -5.0587 H         1 UNK         0.0612 
    135 H135       33.6474   -0.0767   -3.9913 H         1 UNK         0.0612 
    136 H136       31.9380   -1.5597   -6.9589 H         1 UNK         0.0624 
    137 H137       32.9569   -2.9141   -7.3659 H         1 UNK         0.0624 
@<TRIPOS>BOND
     1    1    2 1    
     2    1   72 1    
     3    1   73 1    
     4    1   74 1    
     5    2    3 2    
     6    2    4 am   BACKBONE|DICT|INTERRES
     7    4    5 1    
     8    4   75 1    
     9    5    6 1    
    10    5   35 1    
    11    5   76 1    
    12    6    7 1    
    13    6   77 1    
    14    6   78 1    
    15    7    8 1    
    16    8    9 1    
    17    8   79 1    
    18    8   80 1    
    19    9   10 ar   
    20    9   14 ar   
    21   10   11 ar   
    22   10   81 1    
    23   11   12 ar   
    24   11   71 1    
    25   12   13 ar   
    26   12   82 1    
    27   13   14 ar   
    28   13   15 1    
    29   14   83 1    
    30   15   16 1    
    31   15   84 1    
    32   15   85 1    
    33   16   17 1    
    34   17   18 1    
    35   17   86 1    
    36   17   87 1    
    37   18   19 1    
    38   18   37 1    
    39   18   88 1    
    40   19   20 am   BACKBONE|DICT|INTERRES
    41   19   89 1    
    42   20   21 2    
    43   20   22 1    
    44   22   23 1    
    45   22   24 1    
    46   22   90 1    
    47   23   91 1    
    48   23   92 1    
    49   23   93 1    
    50   24   25 am   BACKBONE|DICT|INTERRES
    51   24   94 1    
    52   25   26 2    
    53   25   27 1    
    54   27   28 1    
    55   27   29 1    
    56   27   95 1    
    57   28   96 1    
    58   28   97 1    
    59   28   98 1    
    60   29   30 am   BACKBONE|DICT|INTERRES
    61   29   99 1    
    62   30   31 2    
    63   30   32 1    
    64   32   33 1    
    65   32   34 1    
    66   32  100 1    
    67   33  101 1    
    68   33  102 1    
    69   33  103 1    
    70   34   35 am   BACKBONE|DICT|INTERRES
    71   34  104 1    
    72   35   36 2    
    73   37   38 2    
    74   37   39 am   BACKBONE|DICT|INTERRES
    75   39   40 1    
    76   39  105 1    
    77   40   41 1    
    78   40   42 1    
    79   40  106 1    
    80   41  107 1    
    81   41  108 1    
    82   41  109 1    
    83   42   43 2    
    84   42   44 am   BACKBONE|DICT|INTERRES
    85   44   45 1    
    86   44  110 1    
    87   45   46 1    
    88   45   47 1    
    89   45  111 1    
    90   46  112 1    
    91   46  113 1    
    92   46  114 1    
    93   47   48 2    
    94   47   49 am   BACKBONE|DICT|INTERRES
    95   49   50 1    
    96   49  115 1    
    97   50   51 1    
    98   50   52 1    
    99   50  116 1    
   100   51  117 1    
   101   51  118 1    
   102   51  119 1    
   103   52   53 2    
   104   52   54 am   BACKBONE|DICT|INTERRES
   105   54   55 1    
   106   54  120 1    
   107   55   56 1    
   108   55   57 1    
   109   55  121 1    
   110   56  122 1    
   111   56  123 1    
   112   56  124 1    
   113   57   58 2    
   114   57   59 am   BACKBONE|DICT|INTERRES
   115   59   60 1    
   116   59  125 1    
   117   60   61 1    
   118   60   62 1    
   119   60  126 1    
   120   61  127 1    
   121   61  128 1    
   122   61  129 1    
   123   62   63 2    
   124   62   64 am   BACKBONE|DICT|INTERRES
   125   64   65 1    
   126   64  130 1    
   127   65   66 1    
   128   65   69 1    
   129   65  131 1    
   130   66   67 am   BACKBONE|DICT|INTERRES
   131   66   68 2    
   132   67  132 1    
   133   67  133 1    
   134   69   70 1    
   135   69  134 1    
   136   69  135 1    
   137   70   71 1    
   138   71  136 1    
   139   71  137 1    
@<TRIPOS>SUBSTRUCTURE
     1 UNK         1 GROUP             0       ****    0 ROOT    
