@<TRIPOS>MOLECULE
3R137
137   139    1
SMALL
USER_CHARGES


@<TRIPOS>ATOM
      1 CA         25.1781   -5.9599   -5.5332 C.3       0 UNK        -0.2020 
      2 C          25.3586   -5.4408   -4.1151 C.2       0 UNK         0.4855 
      3 O          24.4292   -4.8648   -3.5483 O.2       0 UNK        -0.5197 
      4 N          26.5507   -5.6299   -3.5346 N.am      1 UNK        -0.4892 
      5 CA         26.9215   -5.1116   -2.2143 C.3       1 UNK         0.0835 
      6 C6         28.2667   -5.7060   -1.7391 C.3       12 UNK        -0.0855 
      7 S7         28.6307   -5.2926    0.0014 S.3       12 UNK        -0.2931 
      8 C8         30.4232   -4.9767   -0.0543 C.3       12 UNK         0.0378 
      9 C9         30.8077   -3.8124   -0.9611 C.ar      12 UNK        -0.0802 
     10 C10        31.5961   -4.0416   -2.0940 C.ar      12 UNK        -0.0944 
     11 C11        32.0350   -2.9758   -2.8848 C.ar      12 UNK        -0.0787 
     12 C12        31.6771   -1.6724   -2.5299 C.ar      12 UNK        -0.0862 
     13 C13        30.8507   -1.4277   -1.4291 C.ar      12 UNK        -0.0733 
     14 C14        30.4221   -2.5048   -0.6449 C.ar      12 UNK        -0.0832 
     15 C15        30.4625   -0.0006   -1.0575 C.3       12 UNK         0.0240 
     16 S16        29.0738    0.6353   -2.0558 S.3       12 UNK        -0.2522 
     17 C17        29.9357    1.3836   -3.4803 C.3       12 UNK        -0.0967 
     18 CA         29.1696    1.3306   -4.8269 C.3       5 UNK         0.0660 
     19 N          28.5397    0.0381   -5.1097 N.am      5 UNK        -0.4015 
     20 C          28.3535   -0.4460   -6.3462 C.2       4 UNK         0.4946 
     21 O          28.7743    0.0985   -7.3700 O.2       4 UNK        -0.5353 
     22 CA         27.5483   -1.7478   -6.4700 C.3       4 UNK         0.0277 
     23 CB         28.4513   -2.9733   -6.2593 C.3       4 UNK        -0.1981 
     24 N          26.4118   -1.7961   -5.5486 N.am      4 UNK        -0.4209 
     25 C          25.3006   -1.0576   -5.6988 C.2       3 UNK         0.4942 
     26 O          25.1457   -0.2479   -6.6105 O.2       3 UNK        -0.5208 
     27 CA         24.1767   -1.2180   -4.6600 C.3       3 UNK         0.0250 
     28 CB         23.1139   -2.2060   -5.1639 C.3       3 UNK        -0.1990 
     29 N          24.6639   -1.6294   -3.3436 N.am      3 UNK        -0.4232 
     30 C          25.4367   -0.8585   -2.5627 C.2       2 UNK         0.4993 
     31 O          25.7610    0.2917   -2.8586 O.2       2 UNK        -0.5286 
     32 CA         25.9832   -1.4874   -1.2671 C.3       2 UNK         0.0209 
     33 CB         25.0737   -1.1451   -0.0770 C.3       2 UNK        -0.1931 
     34 N          26.1667   -2.9413   -1.3398 N.am      2 UNK        -0.4546 
     35 C          26.9349   -3.5692   -2.2416 C.2       1 UNK         0.5154 
     36 O          27.5867   -2.9839   -3.1082 O.2       1 UNK        -0.5181 
     37 C          28.1927    2.5072   -5.0117 C.2       5 UNK         0.5014 
     38 O          28.6479    3.5903   -5.3809 O.2       5 UNK        -0.5248 
     39 N          26.8809    2.2914   -4.8158 N.am      6 UNK        -0.4434 
     40 CA         25.8414    3.2693   -5.1612 C.3       6 UNK         0.0363 
     41 CB         24.4838    2.8345   -4.5906 C.3       6 UNK        -0.1936 
     42 C          25.7411    3.5047   -6.6797 C.2       6 UNK         0.5081 
     43 O          25.6106    4.6529   -7.1046 O.2       6 UNK        -0.5248 
     44 N          25.8343    2.4240   -7.4702 N.am      7 UNK        -0.4718 
     45 CA         25.9120    2.4688   -8.9339 C.3       7 UNK         0.0273 
     46 CB         25.6964    1.0572   -9.5033 C.3       7 UNK        -0.1935 
     47 C          27.2413    3.0452   -9.4489 C.2       7 UNK         0.5018 
     48 O          27.2677    3.5990  -10.5478 O.2       7 UNK        -0.5186 
     49 N          28.3189    2.8761   -8.6682 N.am      8 UNK        -0.4240 
     50 CA         29.6939    3.3659   -8.8535 C.3       8 UNK         0.0235 
     51 CB         29.7316    4.9049   -8.9169 C.3       8 UNK        -0.2000 
     52 C          30.4675    2.7434  -10.0314 C.2       8 UNK         0.4941 
     53 O          31.6956    2.6896   -9.9773 O.2       8 UNK        -0.5273 
     54 N          29.7620    2.2745  -11.0671 N.am      9 UNK        -0.4262 
     55 CA         30.3275    1.5684  -12.2173 C.3       9 UNK         0.0264 
     56 CB         29.2779    1.5085  -13.3389 C.3       9 UNK        -0.1955 
     57 C          30.8254    0.1545  -11.8691 C.2       9 UNK         0.5031 
     58 O          31.7735   -0.3172  -12.4985 O.2       9 UNK        -0.5390 
     59 N          30.1749   -0.4984  -10.8951 N.am      10 UNK        -0.4204 
     60 CA         30.5175   -1.8435  -10.4338 C.3       10 UNK         0.0237 
     61 CB         29.2664   -2.5400   -9.8790 C.3       10 UNK        -0.1985 
     62 C          31.6689   -1.8167   -9.4171 C.2       10 UNK         0.4970 
     63 O          32.6872   -2.4661   -9.6585 O.2       10 UNK        -0.4914 
     64 N          31.5047   -1.0554   -8.3271 N.am      11 UNK        -0.4285 
     65 CA         32.5568   -0.7939   -7.3357 C.3       11 UNK         0.1007 
     66 C          32.9314    0.7056   -7.4000 C.2       11 UNK         0.5703 
     67 N          34.0882    1.0390   -7.9550 N.am      11 UNK        -0.7361 
     68 O          32.1953    1.5629   -6.9192 O.2       11 UNK        -0.4986 
     69 C69        32.1325   -1.2034   -5.9021 C.3       12 UNK        -0.0947 
     70 S70        32.0415   -3.0105   -5.6728 S.3       12 UNK        -0.2240 
     71 C71        32.9279   -3.2331   -4.0943 C.3       12 UNK         0.0194 
     72 H72        24.3070   -6.6122   -5.5859 H         1 UNK         0.0906 
     73 H73        25.0238   -5.1281   -6.2197 H         1 UNK         0.0906 
     74 H74        26.0452   -6.5249   -5.8742 H         1 UNK         0.0906 
     75 H75        27.2896   -6.0842   -4.0521 H         1 UNK         0.3140 
     76 H76        26.1473   -5.4392   -1.5165 H         1 UNK         0.1085 
     77 H77        29.0768   -5.3772   -2.3919 H         1 UNK         0.0836 
     78 H78        28.2413   -6.7940   -1.8174 H         1 UNK         0.0836 
     79 H79        30.9305   -5.8926   -0.3618 H         1 UNK         0.0731 
     80 H80        30.7716   -4.7643    0.9574 H         1 UNK         0.0731 
     81 H81        31.8906   -5.0509   -2.3474 H         1 UNK         0.1312 
     82 H82        32.0506   -0.8461   -3.1109 H         1 UNK         0.1406 
     83 H83        29.8034   -2.3276    0.2244 H         1 UNK         0.1631 
     84 H84        31.3244    0.6613   -1.1546 H         1 UNK         0.0717 
     85 H85        30.1729    0.0416   -0.0065 H         1 UNK         0.0717 
     86 H86        30.2010    2.4111   -3.2224 H         1 UNK         0.0934 
     87 H87        30.8904    0.8823   -3.6175 H         1 UNK         0.0934 
     88 H88        29.9292    1.4882   -5.5951 H         1 UNK         0.0739 
     89 H89        28.1891   -0.4768   -4.3126 H         1 UNK         0.3093 
     90 H90        27.1474   -1.7938   -7.4843 H         1 UNK         0.0818 
     91 H91        28.9249   -2.9675   -5.2776 H         1 UNK         0.0819 
     92 H92        27.8930   -3.9040   -6.3586 H         1 UNK         0.0819 
     93 H93        29.2564   -2.9971   -6.9930 H         1 UNK         0.0819 
     94 H94        26.5216   -2.3772   -4.7236 H         1 UNK         0.3041 
     95 H95        23.6922   -0.2483   -4.5397 H         1 UNK         0.0784 
     96 H96        22.6603   -1.8460   -6.0885 H         1 UNK         0.0793 
     97 H97        23.5378   -3.1870   -5.3756 H         1 UNK         0.0793 
     98 H98        22.3108   -2.3348   -4.4381 H         1 UNK         0.0793 
     99 H99        24.4665   -2.5807   -3.0570 H         1 UNK         0.3024 
    100 H100       26.9648   -1.0482   -1.0843 H         1 UNK         0.1171 
    101 H101       25.4992   -1.4975    0.8628 H         1 UNK         0.0786 
    102 H102       24.9426   -0.0657    0.0141 H         1 UNK         0.0786 
    103 H103       24.0821   -1.5862   -0.1858 H         1 UNK         0.0786 
    104 H104       25.6539   -3.4946   -0.6681 H         1 UNK         0.2977 
    105 H105       26.5720    1.4152   -4.4072 H         1 UNK         0.3127 
    106 H106       26.1118    4.2189   -4.6941 H         1 UNK         0.0770 
    107 H107       24.1250    1.9210   -5.0620 H         1 UNK         0.0814 
    108 H108       23.7288    3.6030   -4.7611 H         1 UNK         0.0814 
    109 H109       24.5367    2.6649   -3.5151 H         1 UNK         0.0814 
    110 H110       25.8343    1.4995   -7.0460 H         1 UNK         0.2983 
    111 H111       25.1104    3.1147   -9.2987 H         1 UNK         0.0947 
    112 H112       25.7414    1.0614  -10.5932 H         1 UNK         0.0806 
    113 H113       24.7198    0.6628   -9.2222 H         1 UNK         0.0806 
    114 H114       26.4536    0.3578   -9.1458 H         1 UNK         0.0806 
    115 H115       28.1845    2.3172   -7.8354 H         1 UNK         0.3000 
    116 H116       30.2258    3.0649   -7.9498 H         1 UNK         0.0850 
    117 H117       30.7601    5.2674   -8.9395 H         1 UNK         0.0810 
    118 H118       29.2513    5.3462   -8.0432 H         1 UNK         0.0810 
    119 H119       29.2326    5.2900   -9.8066 H         1 UNK         0.0810 
    120 H120       28.7651    2.4662  -11.0737 H         1 UNK         0.3040 
    121 H121       31.1840    2.1409  -12.5802 H         1 UNK         0.0766 
    122 H122       28.9696    2.5078  -13.6472 H         1 UNK         0.0812 
    123 H123       28.3855    0.9625  -13.0301 H         1 UNK         0.0812 
    124 H124       29.6783    1.0074  -14.2214 H         1 UNK         0.0812 
    125 H125       29.4222   -0.0233  -10.4187 H         1 UNK         0.3205 
    126 H126       30.8566   -2.4318  -11.2898 H         1 UNK         0.0754 
    127 H127       29.5142   -3.5080   -9.4411 H         1 UNK         0.0769 
    128 H128       28.5358   -2.7196  -10.6678 H         1 UNK         0.0769 
    129 H129       28.7812   -1.9403   -9.1130 H         1 UNK         0.0769 
    130 H130       30.6431   -0.5377   -8.1954 H         1 UNK         0.2981 
    131 H131       33.4564   -1.3640   -7.5760 H         1 UNK         0.0541 
    132 H132       34.6979    0.3424   -8.3532 H         1 UNK         0.3459 
    133 H133       34.3374    2.0141   -8.0060 H         1 UNK         0.3459 
    134 H134       32.8536   -0.8011   -5.1900 H         1 UNK         0.0612 
    135 H135       31.1695   -0.7702   -5.6375 H         1 UNK         0.0612 
    136 H136       33.8047   -2.5854   -4.0579 H         1 UNK         0.0624 
    137 H137       33.3116   -4.2540   -4.0650 H         1 UNK         0.0624 
@<TRIPOS>BOND
     1    1    2 1    
     2    1   72 1    
     3    1   73 1    
     4    1   74 1    
     5    2    3 2    
     6    2    4 am   BACKBONE|DICT|INTERRES
     7    4    5 1    
     8    4   75 1    
     9    5    6 1    
    10    5   35 1    
    11    5   76 1    
    12    6    7 1    
    13    6   77 1    
    14    6   78 1    
    15    7    8 1    
    16    8    9 1    
    17    8   79 1    
    18    8   80 1    
    19    9   10 ar   
    20    9   14 ar   
    21   10   11 ar   
    22   10   81 1    
    23   11   12 ar   
    24   11   71 1    
    25   12   13 ar   
    26   12   82 1    
    27   13   14 ar   
    28   13   15 1    
    29   14   83 1    
    30   15   16 1    
    31   15   84 1    
    32   15   85 1    
    33   16   17 1    
    34   17   18 1    
    35   17   86 1    
    36   17   87 1    
    37   18   19 1    
    38   18   37 1    
    39   18   88 1    
    40   19   20 am   BACKBONE|DICT|INTERRES
    41   19   89 1    
    42   20   21 2    
    43   20   22 1    
    44   22   23 1    
    45   22   24 1    
    46   22   90 1    
    47   23   91 1    
    48   23   92 1    
    49   23   93 1    
    50   24   25 am   BACKBONE|DICT|INTERRES
    51   24   94 1    
    52   25   26 2    
    53   25   27 1    
    54   27   28 1    
    55   27   29 1    
    56   27   95 1    
    57   28   96 1    
    58   28   97 1    
    59   28   98 1    
    60   29   30 am   BACKBONE|DICT|INTERRES
    61   29   99 1    
    62   30   31 2    
    63   30   32 1    
    64   32   33 1    
    65   32   34 1    
    66   32  100 1    
    67   33  101 1    
    68   33  102 1    
    69   33  103 1    
    70   34   35 am   BACKBONE|DICT|INTERRES
    71   34  104 1    
    72   35   36 2    
    73   37   38 2    
    74   37   39 am   BACKBONE|DICT|INTERRES
    75   39   40 1    
    76   39  105 1    
    77   40   41 1    
    78   40   42 1    
    79   40  106 1    
    80   41  107 1    
    81   41  108 1    
    82   41  109 1    
    83   42   43 2    
    84   42   44 am   BACKBONE|DICT|INTERRES
    85   44   45 1    
    86   44  110 1    
    87   45   46 1    
    88   45   47 1    
    89   45  111 1    
    90   46  112 1    
    91   46  113 1    
    92   46  114 1    
    93   47   48 2    
    94   47   49 am   BACKBONE|DICT|INTERRES
    95   49   50 1    
    96   49  115 1    
    97   50   51 1    
    98   50   52 1    
    99   50  116 1    
   100   51  117 1    
   101   51  118 1    
   102   51  119 1    
   103   52   53 2    
   104   52   54 am   BACKBONE|DICT|INTERRES
   105   54   55 1    
   106   54  120 1    
   107   55   56 1    
   108   55   57 1    
   109   55  121 1    
   110   56  122 1    
   111   56  123 1    
   112   56  124 1    
   113   57   58 2    
   114   57   59 am   BACKBONE|DICT|INTERRES
   115   59   60 1    
   116   59  125 1    
   117   60   61 1    
   118   60   62 1    
   119   60  126 1    
   120   61  127 1    
   121   61  128 1    
   122   61  129 1    
   123   62   63 2    
   124   62   64 am   BACKBONE|DICT|INTERRES
   125   64   65 1    
   126   64  130 1    
   127   65   66 1    
   128   65   69 1    
   129   65  131 1    
   130   66   67 am   BACKBONE|DICT|INTERRES
   131   66   68 2    
   132   67  132 1    
   133   67  133 1    
   134   69   70 1    
   135   69  134 1    
   136   69  135 1    
   137   70   71 1    
   138   71  136 1    
   139   71  137 1    
@<TRIPOS>SUBSTRUCTURE
     1 UNK         1 GROUP             0       ****    0 ROOT    
