@<TRIPOS>MOLECULE
3R137
137   139    1
SMALL
USER_CHARGES


@<TRIPOS>ATOM
      1 CA         26.0576   -5.4044    4.2877 C.3       0 UNK        -0.2020 
      2 C          26.3943   -4.6786    2.9934 C.2       0 UNK         0.4855 
      3 O          26.3251   -3.4499    2.9450 O.2       0 UNK        -0.5197 
      4 N          26.7667   -5.4268    1.9472 N.am      1 UNK        -0.4892 
      5 CA         27.0535   -4.9021    0.6087 C.3       1 UNK         0.0835 
      6 C6         27.9276   -5.9011   -0.1966 C.3       12 UNK        -0.0855 
      7 S7         28.5404   -5.2410   -1.7861 S.3       12 UNK        -0.2931 
      8 C8         30.0083   -4.2995   -1.2645 C.3       12 UNK         0.0378 
      9 C9         30.4032   -3.2696   -2.3152 C.ar      12 UNK        -0.0802 
     10 C10        30.8180   -3.6883   -3.5825 C.ar      12 UNK        -0.0944 
     11 C11        31.1834   -2.7545   -4.5537 C.ar      12 UNK        -0.0787 
     12 C12        31.1500   -1.3919   -4.2456 C.ar      12 UNK        -0.0862 
     13 C13        30.7600   -0.9538   -2.9760 C.ar      12 UNK        -0.0733 
     14 C14        30.3714   -1.9009   -2.0203 C.ar      12 UNK        -0.0832 
     15 C15        30.8283    0.5266   -2.6049 C.3       12 UNK         0.0240 
     16 S16        29.5724    1.5591   -3.4342 S.3       12 UNK        -0.2522 
     17 C17        30.4125    1.9983   -5.0051 C.3       12 UNK        -0.0967 
     18 CA         29.5808    1.7209   -6.2915 C.3       5 UNK         0.0660 
     19 N          28.7119    0.5513   -6.1492 N.am      5 UNK        -0.4015 
     20 C          28.0750   -0.0952   -7.1298 C.2       4 UNK         0.4946 
     21 O          28.2118    0.1645   -8.3266 O.2       4 UNK        -0.5353 
     22 CA         27.0608   -1.1656   -6.6873 C.3       4 UNK         0.0277 
     23 CB         27.7339   -2.5426   -6.5868 C.3       4 UNK        -0.1981 
     24 N          26.3959   -0.8577   -5.4121 N.am      4 UNK        -0.4209 
     25 C          25.6375    0.2210   -5.1693 C.2       3 UNK         0.4942 
     26 O          25.4593    1.1044   -6.0074 O.2       3 UNK        -0.5208 
     27 CA         24.9904    0.3657   -3.7741 C.3       3 UNK         0.0250 
     28 CB         23.7609    1.2936   -3.8027 C.3       3 UNK        -0.1990 
     29 N          24.6052   -0.9058   -3.1500 N.am      3 UNK        -0.4232 
     30 C          25.4537   -1.7669   -2.5791 C.2       2 UNK         0.4993 
     31 O          26.6788   -1.6149   -2.5875 O.2       2 UNK        -0.5286 
     32 CA         24.8487   -3.0173   -1.9306 C.3       2 UNK         0.0209 
     33 CB         24.4407   -4.0467   -3.0032 C.3       2 UNK        -0.1931 
     34 N          25.8768   -3.5714   -1.0609 N.am      2 UNK        -0.4546 
     35 C          25.7483   -4.5143   -0.1254 C.2       1 UNK         0.5154 
     36 O          24.6816   -5.0718    0.1496 O.2       1 UNK        -0.5181 
     37 C          28.8533    2.9923   -6.7848 C.2       5 UNK         0.5014 
     38 O          29.5339    3.9037   -7.2573 O.2       5 UNK        -0.5248 
     39 N          27.5177    3.0489   -6.6886 N.am      6 UNK        -0.4434 
     40 CA         26.6995    4.1539   -7.1908 C.3       6 UNK         0.0363 
     41 CB         25.7579    4.6415   -6.0768 C.3       6 UNK        -0.1936 
     42 C          25.8966    3.7242   -8.4263 C.2       6 UNK         0.5081 
     43 O          25.8642    4.4611   -9.4113 O.2       6 UNK        -0.5248 
     44 N          25.2555    2.5501   -8.3517 N.am      7 UNK        -0.4718 
     45 CA         24.3470    2.0252   -9.3716 C.3       7 UNK         0.0273 
     46 CB         23.5246    0.8721   -8.7728 C.3       7 UNK        -0.1935 
     47 C          25.0609    1.5721  -10.6530 C.2       7 UNK         0.5018 
     48 O          24.5827    1.8793  -11.7458 O.2       7 UNK        -0.5186 
     49 N          26.1768    0.8479  -10.4978 N.am      8 UNK        -0.4240 
     50 CA         26.9698    0.3060  -11.6056 C.3       8 UNK         0.0235 
     51 CB         27.1914   -1.1978  -11.3617 C.3       8 UNK        -0.2000 
     52 C          28.3193    1.0232  -11.7694 C.2       8 UNK         0.4941 
     53 O          28.9875    0.7995  -12.7793 O.2       8 UNK        -0.5273 
     54 N          28.7118    1.8326  -10.7717 N.am      9 UNK        -0.4262 
     55 CA         30.0371    2.4421  -10.5915 C.3       9 UNK         0.0264 
     56 CB         30.3319    3.4813  -11.6941 C.3       9 UNK        -0.1955 
     57 C          31.1508    1.3840  -10.4380 C.2       9 UNK         0.5031 
     58 O          32.2788    1.6018  -10.8862 O.2       9 UNK        -0.5390 
     59 N          30.8021    0.2429   -9.8293 N.am      10 UNK        -0.4204 
     60 CA         31.6790   -0.9114   -9.6493 C.3       10 UNK         0.0237 
     61 CB         30.8012   -2.1611   -9.4709 C.3       10 UNK        -0.1985 
     62 C          32.6356   -0.7305   -8.4599 C.2       10 UNK         0.4970 
     63 O          32.3770    0.0871   -7.5747 O.2       10 UNK        -0.4914 
     64 N          33.7029   -1.5393   -8.4490 N.am      11 UNK        -0.4285 
     65 CA         34.7409   -1.6015   -7.4015 C.3       11 UNK         0.1007 
     66 C          35.6474   -0.3348   -7.3000 C.2       11 UNK         0.5703 
     67 N          35.6275    0.5774   -8.2650 N.am      11 UNK        -0.7361 
     68 O          36.4139   -0.1911   -6.3501 O.2       11 UNK        -0.4986 
     69 C69        34.1924   -2.0523   -6.0141 C.3       12 UNK        -0.0947 
     70 S70        33.3483   -3.6727   -6.0533 S.3       12 UNK        -0.2240 
     71 C71        31.5872   -3.2185   -5.9440 C.3       12 UNK         0.0194 
     72 H72        25.0259   -5.2014    4.5736 H         1 UNK         0.0906 
     73 H73        26.1772   -6.4836    4.1941 H         1 UNK         0.0906 
     74 H74        26.7080   -5.0601    5.0913 H         1 UNK         0.0906 
     75 H75        26.7675   -6.4334    2.0340 H         1 UNK         0.3140 
     76 H76        27.6322   -3.9852    0.7427 H         1 UNK         0.1085 
     77 H77        28.7901   -6.2080    0.3979 H         1 UNK         0.0836 
     78 H78        27.3668   -6.8151   -0.4013 H         1 UNK         0.0836 
     79 H79        29.8121   -3.8113   -0.3091 H         1 UNK         0.0731 
     80 H80        30.8380   -4.9876   -1.0963 H         1 UNK         0.0731 
     81 H81        30.8438   -4.7441   -3.8161 H         1 UNK         0.1312 
     82 H82        31.4429   -0.6794   -5.0006 H         1 UNK         0.1406 
     83 H83        30.0646   -1.5723   -1.0365 H         1 UNK         0.1631 
     84 H84        31.8263    0.9115   -2.8189 H         1 UNK         0.0717 
     85 H85        30.6947    0.6453   -1.5286 H         1 UNK         0.0717 
     86 H86        30.7182    3.0448   -4.9403 H         1 UNK         0.0934 
     87 H87        31.3572    1.4616   -5.0757 H         1 UNK         0.0934 
     88 H88        30.2860    1.4839   -7.0889 H         1 UNK         0.0739 
     89 H89        28.5365    0.2684   -5.1946 H         1 UNK         0.3093 
     90 H90        26.2875   -1.2168   -7.4563 H         1 UNK         0.0818 
     91 H91        27.0127   -3.3181   -6.3282 H         1 UNK         0.0819 
     92 H92        28.1833   -2.8297   -7.5376 H         1 UNK         0.0819 
     93 H93        28.5204   -2.5541   -5.8313 H         1 UNK         0.0819 
     94 H94        26.5597   -1.4901   -4.6362 H         1 UNK         0.3041 
     95 H95        25.7424    0.8393   -3.1391 H         1 UNK         0.0784 
     96 H96        24.0270    2.2914   -4.1531 H         1 UNK         0.0793 
     97 H97        22.9839    0.9116   -4.4661 H         1 UNK         0.0793 
     98 H98        23.3279    1.4123   -2.8092 H         1 UNK         0.0793 
     99 H99        23.6180   -1.1208   -3.1475 H         1 UNK         0.3024 
    100 H100       23.9845   -2.7294   -1.3281 H         1 UNK         0.1171 
    101 H101       23.6944   -3.6349   -3.6836 H         1 UNK         0.0786 
    102 H102       24.0055   -4.9402   -2.5554 H         1 UNK         0.0786 
    103 H103       25.2958   -4.3589   -3.6046 H         1 UNK         0.0786 
    104 H104       26.7907   -3.1685   -1.2415 H         1 UNK         0.2977 
    105 H105       27.0098    2.2539   -6.3146 H         1 UNK         0.3127 
    106 H106       27.3270    4.9979   -7.4852 H         1 UNK         0.0770 
    107 H107       25.0824    3.8548   -5.7402 H         1 UNK         0.0814 
    108 H108       25.1428    5.4730   -6.4231 H         1 UNK         0.0814 
    109 H109       26.3197    4.9922   -5.2111 H         1 UNK         0.0814 
    110 H110       25.3153    2.0144   -7.4857 H         1 UNK         0.2983 
    111 H111       23.6557    2.8250   -9.6471 H         1 UNK         0.0947 
    112 H112       22.8200    0.4727   -9.5035 H         1 UNK         0.0806 
    113 H113       22.9447    1.2058   -7.9120 H         1 UNK         0.0806 
    114 H114       24.1597    0.0480   -8.4454 H         1 UNK         0.0806 
    115 H115       26.5106    0.6436   -9.5631 H         1 UNK         0.3000 
    116 H116       26.4355    0.4170  -12.5516 H         1 UNK         0.0850 
    117 H117       27.7603   -1.6473  -12.1768 H         1 UNK         0.0810 
    118 H118       26.2432   -1.7316  -11.2977 H         1 UNK         0.0810 
    119 H119       27.7429   -1.3846  -10.4400 H         1 UNK         0.0810 
    120 H120       28.0889    1.9139   -9.9807 H         1 UNK         0.3040 
    121 H121       30.0014    2.9777   -9.6442 H         1 UNK         0.0766 
    122 H122       30.4630    3.0135  -12.6701 H         1 UNK         0.0812 
    123 H123       29.5267    4.2113  -11.7759 H         1 UNK         0.0812 
    124 H124       31.2470    4.0325  -11.4745 H         1 UNK         0.0812 
    125 H125       29.8708    0.1742   -9.4290 H         1 UNK         0.3205 
    126 H126       32.2795   -1.0373  -10.5530 H         1 UNK         0.0754 
    127 H127       31.4038   -3.0540   -9.2991 H         1 UNK         0.0769 
    128 H128       30.1971   -2.3467  -10.3594 H         1 UNK         0.0769 
    129 H129       30.1220   -2.0543   -8.6262 H         1 UNK         0.0769 
    130 H130       33.8349   -2.1780   -9.2198 H         1 UNK         0.2981 
    131 H131       35.4235   -2.3835   -7.7355 H         1 UNK         0.0541 
    132 H132       35.0056    0.4787   -9.0512 H         1 UNK         0.3459 
    133 H133       36.2279    1.3835   -8.1931 H         1 UNK         0.3459 
    134 H134       33.5373   -1.2905   -5.5969 H         1 UNK         0.0612 
    135 H135       35.0119   -2.1537   -5.3008 H         1 UNK         0.0612 
    136 H136       30.9866   -4.0839   -6.2277 H         1 UNK         0.0624 
    137 H137       31.3576   -2.4442   -6.6714 H         1 UNK         0.0624 
@<TRIPOS>BOND
     1    1    2 1    
     2    1   72 1    
     3    1   73 1    
     4    1   74 1    
     5    2    3 2    
     6    2    4 am   BACKBONE|DICT|INTERRES
     7    4    5 1    
     8    4   75 1    
     9    5    6 1    
    10    5   35 1    
    11    5   76 1    
    12    6    7 1    
    13    6   77 1    
    14    6   78 1    
    15    7    8 1    
    16    8    9 1    
    17    8   79 1    
    18    8   80 1    
    19    9   10 ar   
    20    9   14 ar   
    21   10   11 ar   
    22   10   81 1    
    23   11   12 ar   
    24   11   71 1    
    25   12   13 ar   
    26   12   82 1    
    27   13   14 ar   
    28   13   15 1    
    29   14   83 1    
    30   15   16 1    
    31   15   84 1    
    32   15   85 1    
    33   16   17 1    
    34   17   18 1    
    35   17   86 1    
    36   17   87 1    
    37   18   19 1    
    38   18   37 1    
    39   18   88 1    
    40   19   20 am   BACKBONE|DICT|INTERRES
    41   19   89 1    
    42   20   21 2    
    43   20   22 1    
    44   22   23 1    
    45   22   24 1    
    46   22   90 1    
    47   23   91 1    
    48   23   92 1    
    49   23   93 1    
    50   24   25 am   BACKBONE|DICT|INTERRES
    51   24   94 1    
    52   25   26 2    
    53   25   27 1    
    54   27   28 1    
    55   27   29 1    
    56   27   95 1    
    57   28   96 1    
    58   28   97 1    
    59   28   98 1    
    60   29   30 am   BACKBONE|DICT|INTERRES
    61   29   99 1    
    62   30   31 2    
    63   30   32 1    
    64   32   33 1    
    65   32   34 1    
    66   32  100 1    
    67   33  101 1    
    68   33  102 1    
    69   33  103 1    
    70   34   35 am   BACKBONE|DICT|INTERRES
    71   34  104 1    
    72   35   36 2    
    73   37   38 2    
    74   37   39 am   BACKBONE|DICT|INTERRES
    75   39   40 1    
    76   39  105 1    
    77   40   41 1    
    78   40   42 1    
    79   40  106 1    
    80   41  107 1    
    81   41  108 1    
    82   41  109 1    
    83   42   43 2    
    84   42   44 am   BACKBONE|DICT|INTERRES
    85   44   45 1    
    86   44  110 1    
    87   45   46 1    
    88   45   47 1    
    89   45  111 1    
    90   46  112 1    
    91   46  113 1    
    92   46  114 1    
    93   47   48 2    
    94   47   49 am   BACKBONE|DICT|INTERRES
    95   49   50 1    
    96   49  115 1    
    97   50   51 1    
    98   50   52 1    
    99   50  116 1    
   100   51  117 1    
   101   51  118 1    
   102   51  119 1    
   103   52   53 2    
   104   52   54 am   BACKBONE|DICT|INTERRES
   105   54   55 1    
   106   54  120 1    
   107   55   56 1    
   108   55   57 1    
   109   55  121 1    
   110   56  122 1    
   111   56  123 1    
   112   56  124 1    
   113   57   58 2    
   114   57   59 am   BACKBONE|DICT|INTERRES
   115   59   60 1    
   116   59  125 1    
   117   60   61 1    
   118   60   62 1    
   119   60  126 1    
   120   61  127 1    
   121   61  128 1    
   122   61  129 1    
   123   62   63 2    
   124   62   64 am   BACKBONE|DICT|INTERRES
   125   64   65 1    
   126   64  130 1    
   127   65   66 1    
   128   65   69 1    
   129   65  131 1    
   130   66   67 am   BACKBONE|DICT|INTERRES
   131   66   68 2    
   132   67  132 1    
   133   67  133 1    
   134   69   70 1    
   135   69  134 1    
   136   69  135 1    
   137   70   71 1    
   138   71  136 1    
   139   71  137 1    
@<TRIPOS>SUBSTRUCTURE
     1 UNK         1 GROUP             0       ****    0 ROOT    
