@<TRIPOS>MOLECULE
3R137
137   139    1
SMALL
USER_CHARGES


@<TRIPOS>ATOM
      1 CA         25.4040   -5.4754   -0.1939 C.3       0 UNK        -0.2020 
      2 C          25.7553   -4.2006    0.5572 C.2       0 UNK         0.4855 
      3 O          25.1655   -3.9164    1.5997 O.2       0 UNK        -0.5197 
      4 N          26.6941   -3.4097    0.0241 N.am      1 UNK        -0.4892 
      5 CA         27.1964   -2.1413    0.5750 C.3       1 UNK         0.0835 
      6 C6         28.6341   -1.8489    0.0644 C.3       12 UNK        -0.0855 
      7 S7         28.7993   -1.9183   -1.7576 S.3       12 UNK        -0.2931 
      8 C8         30.0724   -3.1991   -1.9614 C.3       12 UNK         0.0378 
      9 C9         30.4180   -3.3957   -3.4297 C.ar      12 UNK        -0.0802 
     10 C10        31.4976   -2.7136   -3.9980 C.ar      12 UNK        -0.0944 
     11 C11        31.8313   -2.8990   -5.3444 C.ar      12 UNK        -0.0787 
     12 C12        31.0743   -3.7851   -6.1208 C.ar      12 UNK        -0.0862 
     13 C13        29.9998   -4.4852   -5.5594 C.ar      12 UNK        -0.0733 
     14 C14        29.6731   -4.2791   -4.2152 C.ar      12 UNK        -0.0832 
     15 C15        29.2287   -5.5145   -6.3791 C.3       12 UNK         0.0240 
     16 S16        28.2037   -4.7826   -7.6948 S.3       12 UNK        -0.2522 
     17 C17        27.0013   -3.7790   -6.7540 C.3       12 UNK        -0.0967 
     18 CA         26.7725   -2.3838   -7.3868 C.3       5 UNK         0.0660 
     19 N          25.5811   -1.7308   -6.8357 N.am      5 UNK        -0.4015 
     20 C          25.1055   -0.5254   -7.1844 C.2       4 UNK         0.4946 
     21 O          25.6265    0.1883   -8.0423 O.2       4 UNK        -0.5353 
     22 CA         23.8447   -0.0131   -6.4600 C.3       4 UNK         0.0277 
     23 CB         22.6791    0.1323   -7.4528 C.3       4 UNK        -0.1981 
     24 N          23.4086   -0.8404   -5.3274 N.am      4 UNK        -0.4209 
     25 C          24.0563   -0.9554   -4.1603 C.2       3 UNK         0.4942 
     26 O          25.1292   -0.4003   -3.9139 O.2       3 UNK        -0.5208 
     27 CA         23.4320   -1.9219   -3.1401 C.3       3 UNK         0.0250 
     28 CB         23.9173   -3.3585   -3.4031 C.3       3 UNK        -0.1990 
     29 N          23.7646   -1.5655   -1.7625 N.am      3 UNK        -0.4232 
     30 C          23.3059   -0.4978   -1.0941 C.2       2 UNK         0.4993 
     31 O          22.4956    0.3042   -1.5610 O.2       2 UNK        -0.5286 
     32 CA         23.8087   -0.3069    0.3513 C.3       2 UNK         0.0209 
     33 CB         22.6724   -0.5583    1.3570 C.3       2 UNK        -0.1931 
     34 N          24.9304   -1.1938    0.6770 N.am      2 UNK        -0.4546 
     35 C          26.2090   -0.9672    0.3513 C.2       1 UNK         0.5154 
     36 O          26.5961    0.1002   -0.1271 O.2       1 UNK        -0.5181 
     37 C          28.0349   -1.4994   -7.3132 C.2       5 UNK         0.5014 
     38 O          28.7760   -1.4384   -8.2934 O.2       5 UNK        -0.5248 
     39 N          28.2298   -0.7851   -6.1946 N.am      6 UNK        -0.4434 
     40 CA         29.3635    0.1243   -6.0156 C.3       6 UNK         0.0363 
     41 CB         29.4470    0.5912   -4.5566 C.3       6 UNK        -0.1936 
     42 C          29.3511    1.3286   -6.9700 C.2       6 UNK         0.5081 
     43 O          30.4163    1.7536   -7.4191 O.2       6 UNK        -0.5248 
     44 N          28.1523    1.8383   -7.2841 N.am      7 UNK        -0.4718 
     45 CA         27.9456    2.9123   -8.2555 C.3       7 UNK         0.0273 
     46 CB         26.5701    3.5612   -8.0316 C.3       7 UNK        -0.1935 
     47 C          28.0878    2.4058   -9.6984 C.2       7 UNK         0.5018 
     48 O          28.6797    3.1032  -10.5215 O.2       7 UNK        -0.5186 
     49 N          27.5748    1.1962   -9.9697 N.am      8 UNK        -0.4240 
     50 CA         27.6882    0.5099  -11.2598 C.3       8 UNK         0.0235 
     51 CB         26.7881   -0.7360  -11.2654 C.3       8 UNK        -0.2000 
     52 C          29.1404    0.1418  -11.6109 C.2       8 UNK         0.4941 
     53 O          29.5647    0.3710  -12.7441 O.2       8 UNK        -0.5273 
     54 N          29.8817   -0.3935  -10.6304 N.am      9 UNK        -0.4262 
     55 CA         31.3128   -0.6924  -10.7324 C.3       9 UNK         0.0264 
     56 CB         31.7149   -1.6303   -9.5816 C.3       9 UNK        -0.1955 
     57 C          32.1961    0.5676  -10.7144 C.2       9 UNK         0.5031 
     58 O          33.3202    0.5144  -11.2152 O.2       9 UNK        -0.5390 
     59 N          31.6825    1.6566  -10.1218 N.am      10 UNK        -0.4204 
     60 CA         32.3413    2.9435   -9.8730 C.3       10 UNK         0.0237 
     61 CB         32.6515    3.6734  -11.1972 C.3       10 UNK        -0.1985 
     62 C          33.5663    2.8087   -8.9468 C.2       10 UNK         0.4970 
     63 O          34.5683    3.4984   -9.1467 O.2       10 UNK        -0.4914 
     64 N          33.4640    1.9154   -7.9540 N.am      11 UNK        -0.4285 
     65 CA         34.5183    1.6331   -6.9682 C.3       11 UNK         0.1007 
     66 C          34.5468    2.6144   -5.7600 C.2       11 UNK         0.5703 
     67 N          33.5597    3.4868   -5.5883 N.am      11 UNK        -0.7361 
     68 O          35.4932    2.5968   -4.9762 O.2       11 UNK        -0.4986 
     69 C69        34.5123    0.1430   -6.5327 C.3       12 UNK        -0.0947 
     70 S70        32.9641   -0.3795   -5.7261 S.3       12 UNK        -0.2240 
     71 C71        33.0403   -2.1858   -5.9429 C.3       12 UNK         0.0194 
     72 H72        25.9752   -5.5770   -1.1166 H         1 UNK         0.0906 
     73 H73        25.6090   -6.3453    0.4295 H         1 UNK         0.0906 
     74 H74        24.3446   -5.4814   -0.4488 H         1 UNK         0.0906 
     75 H75        27.1254   -3.6730   -0.8513 H         1 UNK         0.3140 
     76 H76        27.2650   -2.2543    1.6596 H         1 UNK         0.1085 
     77 H77        28.9840   -0.8750    0.4122 H         1 UNK         0.0836 
     78 H78        29.3194   -2.5713    0.5104 H         1 UNK         0.0836 
     79 H79        29.7203   -4.1373   -1.5296 H         1 UNK         0.0731 
     80 H80        30.9645   -2.9154   -1.4005 H         1 UNK         0.0731 
     81 H81        32.0831   -2.0368   -3.3908 H         1 UNK         0.1312 
     82 H82        31.3303   -3.9490   -7.1587 H         1 UNK         0.1406 
     83 H83        28.8477   -4.8192   -3.7715 H         1 UNK         0.1631 
     84 H84        28.5916   -6.1246   -5.7368 H         1 UNK         0.0717 
     85 H85        29.9399   -6.2031   -6.8374 H         1 UNK         0.0717 
     86 H86        26.0652   -4.3393   -6.7373 H         1 UNK         0.0934 
     87 H87        27.3099   -3.6835   -5.7121 H         1 UNK         0.0934 
     88 H88        26.5571   -2.5344   -8.4463 H         1 UNK         0.0739 
     89 H89        25.0817   -2.2376   -6.1219 H         1 UNK         0.3093 
     90 H90        24.0874    0.9795   -6.0745 H         1 UNK         0.0818 
     91 H91        21.8049    0.5778   -6.9777 H         1 UNK         0.0819 
     92 H92        22.9538    0.7793   -8.2875 H         1 UNK         0.0819 
     93 H93        22.3823   -0.8299   -7.8719 H         1 UNK         0.0819 
     94 H94        22.5435   -1.3479   -5.4527 H         1 UNK         0.3041 
     95 H95        22.3452   -1.8894   -3.2441 H         1 UNK         0.0784 
     96 H96        23.6464   -3.6900   -4.4064 H         1 UNK         0.0793 
     97 H97        25.0015   -3.4423   -3.3123 H         1 UNK         0.0793 
     98 H98        23.4677   -4.0631   -2.7030 H         1 UNK         0.0793 
     99 H99        24.4588   -2.1353   -1.3048 H         1 UNK         0.3024 
    100 H100       24.1322    0.7323    0.4474 H         1 UNK         0.1171 
    101 H101       23.0010   -0.3747    2.3801 H         1 UNK         0.0786 
    102 H102       21.8268    0.1042    1.1664 H         1 UNK         0.0786 
    103 H103       22.3034   -1.5833    1.3014 H         1 UNK         0.0786 
    104 H104       24.7099   -2.0955    1.0923 H         1 UNK         0.2977 
    105 H105       27.5714   -0.8637   -5.4319 H         1 UNK         0.3127 
    106 H106       30.2594   -0.4513   -6.2430 H         1 UNK         0.0770 
    107 H107       28.5203    1.0584   -4.2219 H         1 UNK         0.0814 
    108 H108       30.2511    1.3165   -4.4234 H         1 UNK         0.0814 
    109 H109       29.6658   -0.2456   -3.8965 H         1 UNK         0.0814 
    110 H110       27.3240    1.3852   -6.9232 H         1 UNK         0.2983 
    111 H111       28.7103    3.6759   -8.0943 H         1 UNK         0.0947 
    112 H112       26.4146    4.3889   -8.7249 H         1 UNK         0.0806 
    113 H113       26.4815    3.9640   -7.0225 H         1 UNK         0.0806 
    114 H114       25.7544    2.8538   -8.1832 H         1 UNK         0.0806 
    115 H115       27.0531    0.7201   -9.2377 H         1 UNK         0.3000 
    116 H116       27.3245    1.1945  -12.0290 H         1 UNK         0.0850 
    117 H117       26.8039   -1.2227  -12.2414 H         1 UNK         0.0810 
    118 H118       25.7515   -0.4787  -11.0462 H         1 UNK         0.0810 
    119 H119       27.1126   -1.4719  -10.5300 H         1 UNK         0.0810 
    120 H120       29.4319   -0.6311   -9.7451 H         1 UNK         0.3040 
    121 H121       31.4896   -1.2100  -11.6775 H         1 UNK         0.0766 
    122 H122       31.5511   -1.1643   -8.6087 H         1 UNK         0.0812 
    123 H123       32.7706   -1.8976   -9.6429 H         1 UNK         0.0812 
    124 H124       31.1417   -2.5574   -9.6058 H         1 UNK         0.0812 
    125 H125       30.7663    1.5641   -9.7024 H         1 UNK         0.3205 
    126 H126       31.6167    3.5498   -9.3273 H         1 UNK         0.0754 
    127 H127       33.0133    4.6853  -11.0107 H         1 UNK         0.0769 
    128 H128       31.7594    3.7584  -11.8181 H         1 UNK         0.0769 
    129 H129       33.4166    3.1562  -11.7770 H         1 UNK         0.0769 
    130 H130       32.5763    1.4505   -7.8056 H         1 UNK         0.2981 
    131 H131       35.4761    1.7879   -7.4686 H         1 UNK         0.0541 
    132 H132       32.7731    3.4943   -6.2176 H         1 UNK         0.3459 
    133 H133       33.5918    4.1229   -4.8076 H         1 UNK         0.3459 
    134 H134       35.3440   -0.0661   -5.8575 H         1 UNK         0.0612 
    135 H135       34.6751   -0.4859   -7.4094 H         1 UNK         0.0612 
    136 H136       33.9452   -2.5635   -5.4654 H         1 UNK         0.0624 
    137 H137       33.1310   -2.4102   -7.0064 H         1 UNK         0.0624 
@<TRIPOS>BOND
     1    1    2 1    
     2    1   72 1    
     3    1   73 1    
     4    1   74 1    
     5    2    3 2    
     6    2    4 am   BACKBONE|DICT|INTERRES
     7    4    5 1    
     8    4   75 1    
     9    5    6 1    
    10    5   35 1    
    11    5   76 1    
    12    6    7 1    
    13    6   77 1    
    14    6   78 1    
    15    7    8 1    
    16    8    9 1    
    17    8   79 1    
    18    8   80 1    
    19    9   10 ar   
    20    9   14 ar   
    21   10   11 ar   
    22   10   81 1    
    23   11   12 ar   
    24   11   71 1    
    25   12   13 ar   
    26   12   82 1    
    27   13   14 ar   
    28   13   15 1    
    29   14   83 1    
    30   15   16 1    
    31   15   84 1    
    32   15   85 1    
    33   16   17 1    
    34   17   18 1    
    35   17   86 1    
    36   17   87 1    
    37   18   19 1    
    38   18   37 1    
    39   18   88 1    
    40   19   20 am   BACKBONE|DICT|INTERRES
    41   19   89 1    
    42   20   21 2    
    43   20   22 1    
    44   22   23 1    
    45   22   24 1    
    46   22   90 1    
    47   23   91 1    
    48   23   92 1    
    49   23   93 1    
    50   24   25 am   BACKBONE|DICT|INTERRES
    51   24   94 1    
    52   25   26 2    
    53   25   27 1    
    54   27   28 1    
    55   27   29 1    
    56   27   95 1    
    57   28   96 1    
    58   28   97 1    
    59   28   98 1    
    60   29   30 am   BACKBONE|DICT|INTERRES
    61   29   99 1    
    62   30   31 2    
    63   30   32 1    
    64   32   33 1    
    65   32   34 1    
    66   32  100 1    
    67   33  101 1    
    68   33  102 1    
    69   33  103 1    
    70   34   35 am   BACKBONE|DICT|INTERRES
    71   34  104 1    
    72   35   36 2    
    73   37   38 2    
    74   37   39 am   BACKBONE|DICT|INTERRES
    75   39   40 1    
    76   39  105 1    
    77   40   41 1    
    78   40   42 1    
    79   40  106 1    
    80   41  107 1    
    81   41  108 1    
    82   41  109 1    
    83   42   43 2    
    84   42   44 am   BACKBONE|DICT|INTERRES
    85   44   45 1    
    86   44  110 1    
    87   45   46 1    
    88   45   47 1    
    89   45  111 1    
    90   46  112 1    
    91   46  113 1    
    92   46  114 1    
    93   47   48 2    
    94   47   49 am   BACKBONE|DICT|INTERRES
    95   49   50 1    
    96   49  115 1    
    97   50   51 1    
    98   50   52 1    
    99   50  116 1    
   100   51  117 1    
   101   51  118 1    
   102   51  119 1    
   103   52   53 2    
   104   52   54 am   BACKBONE|DICT|INTERRES
   105   54   55 1    
   106   54  120 1    
   107   55   56 1    
   108   55   57 1    
   109   55  121 1    
   110   56  122 1    
   111   56  123 1    
   112   56  124 1    
   113   57   58 2    
   114   57   59 am   BACKBONE|DICT|INTERRES
   115   59   60 1    
   116   59  125 1    
   117   60   61 1    
   118   60   62 1    
   119   60  126 1    
   120   61  127 1    
   121   61  128 1    
   122   61  129 1    
   123   62   63 2    
   124   62   64 am   BACKBONE|DICT|INTERRES
   125   64   65 1    
   126   64  130 1    
   127   65   66 1    
   128   65   69 1    
   129   65  131 1    
   130   66   67 am   BACKBONE|DICT|INTERRES
   131   66   68 2    
   132   67  132 1    
   133   67  133 1    
   134   69   70 1    
   135   69  134 1    
   136   69  135 1    
   137   70   71 1    
   138   71  136 1    
   139   71  137 1    
@<TRIPOS>SUBSTRUCTURE
     1 UNK         1 GROUP             0       ****    0 ROOT    
