@<TRIPOS>MOLECULE
3R137
137   139    1
SMALL
USER_CHARGES


@<TRIPOS>ATOM
      1 CA         26.2345   -5.4038   -2.6597 C.3       0 UNK        -0.2020 
      2 C          26.7697   -4.1725   -1.9447 C.2       0 UNK         0.4855 
      3 O          26.8529   -3.1097   -2.5598 O.2       0 UNK        -0.5197 
      4 N          27.1200   -4.3269   -0.6571 N.am      1 UNK        -0.4892 
      5 CA         27.6393   -3.3229    0.2885 C.3       1 UNK         0.0835 
      6 C6         29.1919   -3.1773    0.2885 C.3       12 UNK        -0.0855 
      7 S7         29.9686   -2.7510   -1.3097 S.3       12 UNK        -0.2931 
      8 C8         30.6299   -4.3686   -1.8160 C.3       12 UNK         0.0378 
      9 C9         30.9507   -4.3693   -3.3003 C.ar      12 UNK        -0.0802 
     10 C10        32.1739   -3.8746   -3.7610 C.ar      12 UNK        -0.0944 
     11 C11        32.4442   -3.8231   -5.1319 C.ar      12 UNK        -0.0787 
     12 C12        31.4872   -4.2823   -6.0414 C.ar      12 UNK        -0.0862 
     13 C13        30.2549   -4.7654   -5.5918 C.ar      12 UNK        -0.0733 
     14 C14        30.0015   -4.8257   -4.2185 C.ar      12 UNK        -0.0832 
     15 C15        29.1727   -5.1459   -6.5956 C.3       12 UNK         0.0240 
     16 S16        27.6346   -4.1850   -6.3668 S.3       12 UNK        -0.2522 
     17 C17        28.2559   -2.4757   -6.1820 C.3       12 UNK        -0.0967 
     18 CA         27.5397   -1.4665   -7.1036 C.3       5 UNK         0.0660 
     19 N          26.0939   -1.4355   -6.8666 N.am      5 UNK        -0.4015 
     20 C          25.2047   -0.6528   -7.4936 C.2       4 UNK         0.4946 
     21 O          25.4940    0.0913   -8.4315 O.2       4 UNK        -0.5353 
     22 CA         23.7673   -0.6383   -6.9412 C.3       4 UNK         0.0277 
     23 CB         22.8697   -1.5634   -7.7775 C.3       4 UNK        -0.1981 
     24 N          23.6436   -0.9917   -5.5180 N.am      4 UNK        -0.4209 
     25 C          24.2989   -0.4112   -4.4997 C.2       3 UNK         0.4942 
     26 O          25.1259    0.4900   -4.6590 O.2       3 UNK        -0.5208 
     27 CA         24.0049   -0.9428   -3.0832 C.3       3 UNK         0.0250 
     28 CB         23.5833   -2.4267   -3.0670 C.3       3 UNK        -0.1990 
     29 N          25.1842   -0.7781   -2.2321 N.am      3 UNK        -0.4232 
     30 C          25.4419    0.2907   -1.4650 C.2       2 UNK         0.4993 
     31 O          24.6566    1.2308   -1.3228 O.2       2 UNK        -0.5286 
     32 CA         26.8071    0.3262   -0.7423 C.3       2 UNK         0.0209 
     33 CB         26.7781    1.1735    0.5481 C.3       2 UNK        -0.1931 
     34 N          27.3802   -1.0007   -0.4790 N.am      2 UNK        -0.4546 
     35 C          26.8587   -1.9896    0.2608 C.2       1 UNK         0.5154 
     36 O          25.8019   -1.9008    0.8891 O.2       1 UNK        -0.5181 
     37 C          28.2123   -0.0836   -6.9680 C.2       5 UNK         0.5014 
     38 O          29.1897    0.1682   -7.6731 O.2       5 UNK        -0.5248 
     39 N          27.6700    0.8046   -6.1201 N.am      6 UNK        -0.4434 
     40 CA         28.1398    2.1844   -5.9643 C.3       6 UNK         0.0363 
     41 CB         27.4641    2.8188   -4.7385 C.3       6 UNK        -0.1936 
     42 C          27.9275    3.0582   -7.2160 C.2       6 UNK         0.5081 
     43 O          28.5982    4.0821   -7.3445 O.2       6 UNK        -0.5248 
     44 N          27.0251    2.6438   -8.1157 N.am      7 UNK        -0.4718 
     45 CA         26.8074    3.2599   -9.4232 C.3       7 UNK         0.0273 
     46 CB         25.3010    3.4856   -9.6355 C.3       7 UNK        -0.1935 
     47 C          27.3860    2.3833  -10.5439 C.2       7 UNK         0.5018 
     48 O          28.0583    2.9101  -11.4302 O.2       7 UNK        -0.5186 
     49 N          27.1049    1.0723  -10.4978 N.am      8 UNK        -0.4240 
     50 CA         27.4493    0.1101  -11.5474 C.3       8 UNK         0.0235 
     51 CB         26.6387   -1.1814  -11.3473 C.3       8 UNK        -0.2000 
     52 C          28.9517   -0.1986  -11.6407 C.2       8 UNK         0.4941 
     53 O          29.4916   -0.2146  -12.7477 O.2       8 UNK        -0.5273 
     54 N          29.5931   -0.4472  -10.4915 N.am      9 UNK        -0.4262 
     55 CA         31.0247   -0.7503  -10.3898 C.3       9 UNK         0.0264 
     56 CB         31.2197   -1.9324   -9.4237 C.3       9 UNK        -0.1955 
     57 C          31.8424    0.4689   -9.9287 C.2       9 UNK         0.5031 
     58 O          33.0566    0.4831  -10.1329 O.2       9 UNK        -0.5390 
     59 N          31.1680    1.4550   -9.3168 N.am      10 UNK        -0.4204 
     60 CA         31.7055    2.6757   -8.7046 C.3       10 UNK         0.0237 
     61 CB         32.4210    3.5649   -9.7444 C.3       10 UNK        -0.1985 
     62 C          32.5573    2.3960   -7.4501 C.2       10 UNK         0.4970 
     63 O          33.4556    3.1787   -7.1345 O.2       10 UNK        -0.4914 
     64 N          32.2607    1.2901   -6.7559 N.am      11 UNK        -0.4285 
     65 CA         32.9274    0.8778   -5.5136 C.3       11 UNK         0.1007 
     66 C          32.4883    1.7351   -4.2960 C.2       11 UNK         0.5703 
     67 N          33.3570    1.8931   -3.3064 N.am      11 UNK        -0.7361 
     68 O          31.3648    2.2284   -4.2220 O.2       11 UNK        -0.4986 
     69 C69        32.7191   -0.6321   -5.2384 C.3       12 UNK        -0.0947 
     70 S70        33.4828   -1.6685   -6.5307 S.3       12 UNK        -0.2240 
     71 C71        33.7521   -3.2320   -5.6364 C.3       12 UNK         0.0194 
     72 H72        26.5358   -6.3253   -2.1622 H         1 UNK         0.0906 
     73 H73        25.1460   -5.3719   -2.6953 H         1 UNK         0.0906 
     74 H74        26.6044   -5.4378   -3.6838 H         1 UNK         0.0906 
     75 H75        26.9793   -5.2384   -0.2437 H         1 UNK         0.3140 
     76 H76        27.3967   -3.7377    1.2689 H         1 UNK         0.1085 
     77 H77        29.4958   -2.4255    1.0196 H         1 UNK         0.0836 
     78 H78        29.6338   -4.1072    0.6495 H         1 UNK         0.0836 
     79 H79        31.5234   -4.5976   -1.2331 H         1 UNK         0.0731 
     80 H80        29.9026   -5.1507   -1.5922 H         1 UNK         0.0731 
     81 H81        32.9013   -3.5030   -3.0522 H         1 UNK         0.1312 
     82 H82        31.6892   -4.2176   -7.1020 H         1 UNK         0.1406 
     83 H83        29.0426   -5.1801   -3.8683 H         1 UNK         0.1631 
     84 H84        28.9475   -6.2085   -6.4972 H         1 UNK         0.0717 
     85 H85        29.5236   -4.9966   -7.6180 H         1 UNK         0.0717 
     86 H86        29.3264   -2.4529   -6.3913 H         1 UNK         0.0934 
     87 H87        28.1495   -2.1918   -5.1321 H         1 UNK         0.0934 
     88 H88        27.6848   -1.7896   -8.1356 H         1 UNK         0.0739 
     89 H89        25.7627   -2.0242   -6.1168 H         1 UNK         0.3093 
     90 H90        23.4000    0.3842   -7.0495 H         1 UNK         0.0818 
     91 H91        21.8238   -1.4774   -7.4821 H         1 UNK         0.0819 
     92 H92        22.9255   -1.3081   -8.8370 H         1 UNK         0.0819 
     93 H93        23.1635   -2.6093   -7.6789 H         1 UNK         0.0819 
     94 H94        22.9879   -1.7275   -5.2976 H         1 UNK         0.3041 
     95 H95        23.1790   -0.3531   -2.6804 H         1 UNK         0.0784 
     96 H96        22.6016   -2.5694   -3.5197 H         1 UNK         0.0793 
     97 H97        24.2935   -3.0566   -3.6042 H         1 UNK         0.0793 
     98 H98        23.5155   -2.8042   -2.0462 H         1 UNK         0.0793 
     99 H99        25.8922   -1.5065   -2.3071 H         1 UNK         0.3024 
    100 H100       27.4900    0.8150   -1.4391 H         1 UNK         0.1171 
    101 H101       27.7565    1.1996    1.0279 H         1 UNK         0.0786 
    102 H102       26.0594    0.7857    1.2706 H         1 UNK         0.0786 
    103 H103       26.4979    2.2055    0.3338 H         1 UNK         0.0786 
    104 H104       28.2262   -1.2283   -0.9899 H         1 UNK         0.2977 
    105 H105       26.8347    0.5532   -5.5957 H         1 UNK         0.3127 
    106 H106       29.2148    2.1476   -5.7795 H         1 UNK         0.0770 
    107 H107       26.3847    2.9015   -4.8711 H         1 UNK         0.0814 
    108 H108       27.8493    3.8232   -4.5581 H         1 UNK         0.0814 
    109 H109       27.6482    2.2346   -3.8368 H         1 UNK         0.0814 
    110 H110       26.5198    1.7829   -7.9363 H         1 UNK         0.2983 
    111 H111       27.3028    4.2321   -9.4760 H         1 UNK         0.0947 
    112 H112       25.1074    3.9364  -10.6098 H         1 UNK         0.0806 
    113 H113       24.8940    4.1588   -8.8809 H         1 UNK         0.0806 
    114 H114       24.7371    2.5530   -9.5886 H         1 UNK         0.0806 
    115 H115       26.5138    0.7257   -9.7429 H         1 UNK         0.3000 
    116 H116       27.1478    0.5452  -12.5030 H         1 UNK         0.0850 
    117 H117       26.8523   -1.9031  -12.1369 H         1 UNK         0.0810 
    118 H118       25.5669   -0.9831  -11.3714 H         1 UNK         0.0810 
    119 H119       26.8654   -1.6622  -10.3958 H         1 UNK         0.0810 
    120 H120       29.0885   -0.3796   -9.6154 H         1 UNK         0.3040 
    121 H121       31.4151   -1.0513  -11.3643 H         1 UNK         0.0766 
    122 H122       32.2699   -2.2231   -9.3758 H         1 UNK         0.0812 
    123 H123       30.9063   -1.6896   -8.4083 H         1 UNK         0.0812 
    124 H124       30.6569   -2.8078   -9.7476 H         1 UNK         0.0812 
    125 H125       30.1906    1.2749   -9.1212 H         1 UNK         0.3205 
    126 H126       30.8403    3.2343   -8.3509 H         1 UNK         0.0754 
    127 H127       32.6654    4.5400   -9.3214 H         1 UNK         0.0769 
    128 H128       31.7899    3.7405  -10.6157 H         1 UNK         0.0769 
    129 H129       33.3544    3.1189  -10.0886 H         1 UNK         0.0769 
    130 H130       31.4859    0.7170   -7.0591 H         1 UNK         0.2981 
    131 H131       33.9983    1.0434   -5.6500 H         1 UNK         0.0541 
    132 H132       34.2784    1.4864   -3.3494 H         1 UNK         0.3459 
    133 H133       33.0862    2.4360   -2.5017 H         1 UNK         0.3459 
    134 H134       31.6564   -0.8745   -5.1741 H         1 UNK         0.0612 
    135 H135       33.1585   -0.9084   -4.2781 H         1 UNK         0.0612 
    136 H136       34.2351   -3.9444   -6.3064 H         1 UNK         0.0624 
    137 H137       34.4482   -3.0593   -4.8141 H         1 UNK         0.0624 
@<TRIPOS>BOND
     1    1    2 1    
     2    1   72 1    
     3    1   73 1    
     4    1   74 1    
     5    2    3 2    
     6    2    4 am   BACKBONE|DICT|INTERRES
     7    4    5 1    
     8    4   75 1    
     9    5    6 1    
    10    5   35 1    
    11    5   76 1    
    12    6    7 1    
    13    6   77 1    
    14    6   78 1    
    15    7    8 1    
    16    8    9 1    
    17    8   79 1    
    18    8   80 1    
    19    9   10 ar   
    20    9   14 ar   
    21   10   11 ar   
    22   10   81 1    
    23   11   12 ar   
    24   11   71 1    
    25   12   13 ar   
    26   12   82 1    
    27   13   14 ar   
    28   13   15 1    
    29   14   83 1    
    30   15   16 1    
    31   15   84 1    
    32   15   85 1    
    33   16   17 1    
    34   17   18 1    
    35   17   86 1    
    36   17   87 1    
    37   18   19 1    
    38   18   37 1    
    39   18   88 1    
    40   19   20 am   BACKBONE|DICT|INTERRES
    41   19   89 1    
    42   20   21 2    
    43   20   22 1    
    44   22   23 1    
    45   22   24 1    
    46   22   90 1    
    47   23   91 1    
    48   23   92 1    
    49   23   93 1    
    50   24   25 am   BACKBONE|DICT|INTERRES
    51   24   94 1    
    52   25   26 2    
    53   25   27 1    
    54   27   28 1    
    55   27   29 1    
    56   27   95 1    
    57   28   96 1    
    58   28   97 1    
    59   28   98 1    
    60   29   30 am   BACKBONE|DICT|INTERRES
    61   29   99 1    
    62   30   31 2    
    63   30   32 1    
    64   32   33 1    
    65   32   34 1    
    66   32  100 1    
    67   33  101 1    
    68   33  102 1    
    69   33  103 1    
    70   34   35 am   BACKBONE|DICT|INTERRES
    71   34  104 1    
    72   35   36 2    
    73   37   38 2    
    74   37   39 am   BACKBONE|DICT|INTERRES
    75   39   40 1    
    76   39  105 1    
    77   40   41 1    
    78   40   42 1    
    79   40  106 1    
    80   41  107 1    
    81   41  108 1    
    82   41  109 1    
    83   42   43 2    
    84   42   44 am   BACKBONE|DICT|INTERRES
    85   44   45 1    
    86   44  110 1    
    87   45   46 1    
    88   45   47 1    
    89   45  111 1    
    90   46  112 1    
    91   46  113 1    
    92   46  114 1    
    93   47   48 2    
    94   47   49 am   BACKBONE|DICT|INTERRES
    95   49   50 1    
    96   49  115 1    
    97   50   51 1    
    98   50   52 1    
    99   50  116 1    
   100   51  117 1    
   101   51  118 1    
   102   51  119 1    
   103   52   53 2    
   104   52   54 am   BACKBONE|DICT|INTERRES
   105   54   55 1    
   106   54  120 1    
   107   55   56 1    
   108   55   57 1    
   109   55  121 1    
   110   56  122 1    
   111   56  123 1    
   112   56  124 1    
   113   57   58 2    
   114   57   59 am   BACKBONE|DICT|INTERRES
   115   59   60 1    
   116   59  125 1    
   117   60   61 1    
   118   60   62 1    
   119   60  126 1    
   120   61  127 1    
   121   61  128 1    
   122   61  129 1    
   123   62   63 2    
   124   62   64 am   BACKBONE|DICT|INTERRES
   125   64   65 1    
   126   64  130 1    
   127   65   66 1    
   128   65   69 1    
   129   65  131 1    
   130   66   67 am   BACKBONE|DICT|INTERRES
   131   66   68 2    
   132   67  132 1    
   133   67  133 1    
   134   69   70 1    
   135   69  134 1    
   136   69  135 1    
   137   70   71 1    
   138   71  136 1    
   139   71  137 1    
@<TRIPOS>SUBSTRUCTURE
     1 UNK         1 GROUP             0       ****    0 ROOT    
