@<TRIPOS>MOLECULE
3R137
137   139    1
SMALL
USER_CHARGES


@<TRIPOS>ATOM
      1 CA         30.6258   -4.7748   -5.6671 C.3       0 UNK        -0.2020 
      2 C          29.2208   -4.6936   -5.0935 C.2       0 UNK         0.4855 
      3 O          28.2453   -4.8424   -5.8299 O.2       0 UNK        -0.5197 
      4 N          29.1134   -4.4916   -3.7763 N.am      1 UNK        -0.4892 
      5 CA         27.8592   -4.5380   -3.0192 C.3       1 UNK         0.0835 
      6 C6         28.0868   -4.6868   -1.4861 C.3       12 UNK        -0.0855 
      7 S7         29.5654   -5.6755   -1.0246 S.3       12 UNK        -0.2931 
      8 C8         30.5654   -4.5289   -0.0081 C.3       12 UNK         0.0378 
      9 C9         30.9978   -3.2713   -0.7562 C.ar      12 UNK        -0.0802 
     10 C10        32.2016   -3.2237   -1.4662 C.ar      12 UNK        -0.0944 
     11 C11        32.5930   -2.0496   -2.1225 C.ar      12 UNK        -0.0787 
     12 C12        31.7400   -0.9378   -2.1095 C.ar      12 UNK        -0.0862 
     13 C13        30.5295   -0.9692   -1.4049 C.ar      12 UNK        -0.0733 
     14 C14        30.2002   -2.1284   -0.6947 C.ar      12 UNK        -0.0832 
     15 C15        29.6047    0.2549   -1.4176 C.3       12 UNK         0.0240 
     16 S16        27.8509   -0.1370   -1.0284 S.3       12 UNK        -0.2522 
     17 C17        26.8090    1.1722   -1.7650 C.3       12 UNK        -0.0967 
     18 CA         27.2778    1.7723   -3.1124 C.3       5 UNK         0.0660 
     19 N          27.6547    0.7546   -4.0964 N.am      5 UNK        -0.4015 
     20 C          28.3869    1.0253   -5.1848 C.2       4 UNK         0.4946 
     21 O          28.7170    2.1603   -5.5241 O.2       4 UNK        -0.5353 
     22 CA         28.8473   -0.1677   -6.0243 C.3       4 UNK         0.0277 
     23 CB         29.9879   -0.9048   -5.3191 C.3       4 UNK        -0.1981 
     24 N          27.7491   -1.0939   -6.2689 N.am      4 UNK        -0.4209 
     25 C          26.8796   -0.9644   -7.2771 C.2       3 UNK         0.4942 
     26 O          26.9917   -0.1162   -8.1607 O.2       3 UNK        -0.5208 
     27 CA         25.6733   -1.9190   -7.3061 C.3       3 UNK         0.0250 
     28 CB         25.9461   -3.0886   -8.2644 C.3       3 UNK        -0.1990 
     29 N          25.3068   -2.4427   -5.9868 N.am      3 UNK        -0.4232 
     30 C          24.8657   -1.6970   -4.9626 C.2       2 UNK         0.4993 
     31 O          24.6774   -0.4816   -5.0317 O.2       2 UNK        -0.5286 
     32 CA         24.6755   -2.4139   -3.6126 C.3       2 UNK         0.0209 
     33 CB         23.2483   -2.9710   -3.4961 C.3       2 UNK        -0.1931 
     34 N          25.6492   -3.4870   -3.3549 N.am      2 UNK        -0.4546 
     35 C          26.9788   -3.3110   -3.3420 C.2       1 UNK         0.5154 
     36 O          27.5090   -2.2228   -3.5790 O.2       1 UNK        -0.5181 
     37 C          26.2265    2.7599   -3.6563 C.2       5 UNK         0.5014 
     38 O          26.3446    3.9582   -3.3937 O.2       5 UNK        -0.5248 
     39 N          25.2163    2.2517   -4.3780 N.am      6 UNK        -0.4434 
     40 CA         24.1184    3.0567   -4.9128 C.3       6 UNK         0.0363 
     41 CB         22.7954    2.2775   -4.8049 C.3       6 UNK        -0.1936 
     42 C          24.3888    3.4883   -6.3594 C.2       6 UNK         0.5081 
     43 O          24.3753    4.6861   -6.6443 O.2       6 UNK        -0.5248 
     44 N          24.5939    2.5121   -7.2548 N.am      7 UNK        -0.4718 
     45 CA         24.6621    2.7493   -8.7019 C.3       7 UNK         0.0273 
     46 CB         24.1828    1.4929   -9.4492 C.3       7 UNK        -0.1935 
     47 C          26.0453    3.1933   -9.2087 C.2       7 UNK         0.5018 
     48 O          26.1149    3.7551  -10.3027 O.2       7 UNK        -0.5186 
     49 N          27.1083    2.9250   -8.4333 N.am      8 UNK        -0.4240 
     50 CA         28.5248    3.1473   -8.7669 C.3       8 UNK         0.0235 
     51 CB         28.8438    4.6560   -8.8360 C.3       8 UNK        -0.2000 
     52 C          28.9779    2.3738  -10.0230 C.2       8 UNK         0.4941 
     53 O          29.7917    2.8765  -10.8003 O.2       8 UNK        -0.5273 
     54 N          28.4323    1.1645  -10.2017 N.am      9 UNK        -0.4262 
     55 CA         28.6258    0.3129  -11.3759 C.3       9 UNK         0.0264 
     56 CB         27.2694   -0.3220  -11.7308 C.3       9 UNK        -0.1955 
     57 C          29.6921   -0.7766  -11.1651 C.2       9 UNK         0.5031 
     58 O          29.9617   -1.5304  -12.1023 O.2       9 UNK        -0.5390 
     59 N          30.2659   -0.8702   -9.9599 N.am      10 UNK        -0.4204 
     60 CA         31.2171   -1.9017   -9.5535 C.3       10 UNK         0.0237 
     61 CB         30.4400   -3.1743   -9.1598 C.3       10 UNK        -0.1985 
     62 C          32.0819   -1.3861   -8.3946 C.2       10 UNK         0.4970 
     63 O          31.8066   -0.3096   -7.8608 O.2       10 UNK        -0.4914 
     64 N          33.0965   -2.1790   -8.0225 N.am      11 UNK        -0.4285 
     65 CA         34.0106   -1.9621   -6.8833 C.3       11 UNK         0.1007 
     66 C          34.9710   -0.7398   -7.0160 C.2       11 UNK         0.5703 
     67 N          35.1529   -0.1720   -8.2025 N.am      11 UNK        -0.7361 
     68 O          35.5877   -0.3165   -6.0412 O.2       11 UNK        -0.4986 
     69 C69        33.2685   -2.0237   -5.5134 C.3       12 UNK        -0.0947 
     70 S70        34.1376   -3.0101   -4.2541 S.3       12 UNK        -0.2240 
     71 C71        33.9697   -1.9603   -2.7763 C.3       12 UNK         0.0194 
     72 H72        30.7923   -5.7574   -6.1074 H         1 UNK         0.0906 
     73 H73        30.7587   -4.0300   -6.4467 H         1 UNK         0.0906 
     74 H74        31.3864   -4.6146   -4.9028 H         1 UNK         0.0906 
     75 H75        29.9399   -4.3477   -3.2127 H         1 UNK         0.3140 
     76 H76        27.3262   -5.4285   -3.3603 H         1 UNK         0.1085 
     77 H77        27.2165   -5.1731   -1.0421 H         1 UNK         0.0836 
     78 H78        28.1294   -3.7162   -0.9997 H         1 UNK         0.0836 
     79 H79        31.4482   -5.0614    0.3489 H         1 UNK         0.0731 
     80 H80        29.9987   -4.2601    0.8849 H         1 UNK         0.0731 
     81 H81        32.8498   -4.0894   -1.4845 H         1 UNK         0.1312 
     82 H82        32.0300   -0.0358   -2.6310 H         1 UNK         0.1406 
     83 H83        29.3047   -2.1543   -0.0930 H         1 UNK         0.1631 
     84 H84        29.6828    0.7245   -2.3953 H         1 UNK         0.0717 
     85 H85        29.9698    0.9844   -0.6940 H         1 UNK         0.0717 
     86 H86        25.8102    0.7443   -1.8738 H         1 UNK         0.0934 
     87 H87        26.7089    1.9669   -1.0230 H         1 UNK         0.0934 
     88 H88        28.1702    2.3673   -2.9064 H         1 UNK         0.0739 
     89 H89        27.4666   -0.2141   -3.8541 H         1 UNK         0.3093 
     90 H90        29.2282    0.2081   -6.9760 H         1 UNK         0.0818 
     91 H91        30.8571   -0.2552   -5.2193 H         1 UNK         0.0819 
     92 H92        29.7220   -1.2481   -4.3201 H         1 UNK         0.0819 
     93 H93        30.2806   -1.7729   -5.9025 H         1 UNK         0.0819 
     94 H94        27.5755   -1.7868   -5.5484 H         1 UNK         0.3041 
     95 H95        24.8207   -1.3534   -7.6870 H         1 UNK         0.0784 
     96 H96        26.1922   -2.7261   -9.2633 H         1 UNK         0.0793 
     97 H97        26.7832   -3.7006   -7.9256 H         1 UNK         0.0793 
     98 H98        25.0737   -3.7349   -8.3618 H         1 UNK         0.0793 
     99 H99        25.4645   -3.4280   -5.8288 H         1 UNK         0.3024 
    100 H100       24.8121   -1.6599   -2.8340 H         1 UNK         0.1171 
    101 H101       23.0612   -3.3799   -2.5030 H         1 UNK         0.0786 
    102 H102       22.5086   -2.1868   -3.6651 H         1 UNK         0.0786 
    103 H103       23.0603   -3.7593   -4.2262 H         1 UNK         0.0786 
    104 H104       25.2717   -4.4020   -3.1523 H         1 UNK         0.2977 
    105 H105       25.1774    1.2501   -4.5619 H         1 UNK         0.3127 
    106 H106       24.0017    3.9638   -4.3153 H         1 UNK         0.0770 
    107 H107       22.8069    1.3572   -5.3893 H         1 UNK         0.0814 
    108 H108       21.9605    2.8794   -5.1659 H         1 UNK         0.0814 
    109 H109       22.5783    2.0109   -3.7706 H         1 UNK         0.0814 
    110 H110       24.6019    1.5515   -6.9408 H         1 UNK         0.2983 
    111 H111       23.9680    3.5554   -8.9519 H         1 UNK         0.0947 
    112 H112       24.1751    1.6612  -10.5271 H         1 UNK         0.0806 
    113 H113       23.1676    1.2217   -9.1592 H         1 UNK         0.0806 
    114 H114       24.8247    0.6337   -9.2645 H         1 UNK         0.0806 
    115 H115       26.9363    2.4373   -7.5648 H         1 UNK         0.3000 
    116 H116       29.1093    2.7308   -7.9481 H         1 UNK         0.0850 
    117 H117       29.9153    4.8242   -8.9503 H         1 UNK         0.0810 
    118 H118       28.5325    5.1673   -7.9251 H         1 UNK         0.0810 
    119 H119       28.3479    5.1380   -9.6790 H         1 UNK         0.0810 
    120 H120       27.8045    0.8006   -9.4838 H         1 UNK         0.3040 
    121 H121       28.9476    0.9202  -12.2245 H         1 UNK         0.0766 
    122 H122       26.5143    0.4406  -11.9227 H         1 UNK         0.0812 
    123 H123       26.9020   -0.9607  -10.9268 H         1 UNK         0.0812 
    124 H124       27.3440   -0.9362  -12.6292 H         1 UNK         0.0812 
    125 H125       30.0665   -0.1723   -9.2552 H         1 UNK         0.3205 
    126 H126       31.8845   -2.1241  -10.3889 H         1 UNK         0.0754 
    127 H127       31.1105   -3.9760   -8.8498 H         1 UNK         0.0769 
    128 H128       29.8583   -3.5576   -9.9983 H         1 UNK         0.0769 
    129 H129       29.7457   -2.9814   -8.3406 H         1 UNK         0.0769 
    130 H130       33.2619   -3.0267   -8.5456 H         1 UNK         0.2981 
    131 H131       34.6788   -2.8223   -6.9339 H         1 UNK         0.0541 
    132 H132       35.7826    0.6106   -8.2825 H         1 UNK         0.3459 
    133 H133       34.6608   -0.5102   -9.0131 H         1 UNK         0.3459 
    134 H134       32.3071   -2.5120   -5.6296 H         1 UNK         0.0612 
    135 H135       33.0510   -1.0241   -5.1354 H         1 UNK         0.0612 
    136 H136       34.7190   -2.2746   -2.0486 H         1 UNK         0.0624 
    137 H137       34.2179   -0.9294   -3.0338 H         1 UNK         0.0624 
@<TRIPOS>BOND
     1    1    2 1    
     2    1   72 1    
     3    1   73 1    
     4    1   74 1    
     5    2    3 2    
     6    2    4 am   BACKBONE|DICT|INTERRES
     7    4    5 1    
     8    4   75 1    
     9    5    6 1    
    10    5   35 1    
    11    5   76 1    
    12    6    7 1    
    13    6   77 1    
    14    6   78 1    
    15    7    8 1    
    16    8    9 1    
    17    8   79 1    
    18    8   80 1    
    19    9   10 ar   
    20    9   14 ar   
    21   10   11 ar   
    22   10   81 1    
    23   11   12 ar   
    24   11   71 1    
    25   12   13 ar   
    26   12   82 1    
    27   13   14 ar   
    28   13   15 1    
    29   14   83 1    
    30   15   16 1    
    31   15   84 1    
    32   15   85 1    
    33   16   17 1    
    34   17   18 1    
    35   17   86 1    
    36   17   87 1    
    37   18   19 1    
    38   18   37 1    
    39   18   88 1    
    40   19   20 am   BACKBONE|DICT|INTERRES
    41   19   89 1    
    42   20   21 2    
    43   20   22 1    
    44   22   23 1    
    45   22   24 1    
    46   22   90 1    
    47   23   91 1    
    48   23   92 1    
    49   23   93 1    
    50   24   25 am   BACKBONE|DICT|INTERRES
    51   24   94 1    
    52   25   26 2    
    53   25   27 1    
    54   27   28 1    
    55   27   29 1    
    56   27   95 1    
    57   28   96 1    
    58   28   97 1    
    59   28   98 1    
    60   29   30 am   BACKBONE|DICT|INTERRES
    61   29   99 1    
    62   30   31 2    
    63   30   32 1    
    64   32   33 1    
    65   32   34 1    
    66   32  100 1    
    67   33  101 1    
    68   33  102 1    
    69   33  103 1    
    70   34   35 am   BACKBONE|DICT|INTERRES
    71   34  104 1    
    72   35   36 2    
    73   37   38 2    
    74   37   39 am   BACKBONE|DICT|INTERRES
    75   39   40 1    
    76   39  105 1    
    77   40   41 1    
    78   40   42 1    
    79   40  106 1    
    80   41  107 1    
    81   41  108 1    
    82   41  109 1    
    83   42   43 2    
    84   42   44 am   BACKBONE|DICT|INTERRES
    85   44   45 1    
    86   44  110 1    
    87   45   46 1    
    88   45   47 1    
    89   45  111 1    
    90   46  112 1    
    91   46  113 1    
    92   46  114 1    
    93   47   48 2    
    94   47   49 am   BACKBONE|DICT|INTERRES
    95   49   50 1    
    96   49  115 1    
    97   50   51 1    
    98   50   52 1    
    99   50  116 1    
   100   51  117 1    
   101   51  118 1    
   102   51  119 1    
   103   52   53 2    
   104   52   54 am   BACKBONE|DICT|INTERRES
   105   54   55 1    
   106   54  120 1    
   107   55   56 1    
   108   55   57 1    
   109   55  121 1    
   110   56  122 1    
   111   56  123 1    
   112   56  124 1    
   113   57   58 2    
   114   57   59 am   BACKBONE|DICT|INTERRES
   115   59   60 1    
   116   59  125 1    
   117   60   61 1    
   118   60   62 1    
   119   60  126 1    
   120   61  127 1    
   121   61  128 1    
   122   61  129 1    
   123   62   63 2    
   124   62   64 am   BACKBONE|DICT|INTERRES
   125   64   65 1    
   126   64  130 1    
   127   65   66 1    
   128   65   69 1    
   129   65  131 1    
   130   66   67 am   BACKBONE|DICT|INTERRES
   131   66   68 2    
   132   67  132 1    
   133   67  133 1    
   134   69   70 1    
   135   69  134 1    
   136   69  135 1    
   137   70   71 1    
   138   71  136 1    
   139   71  137 1    
@<TRIPOS>SUBSTRUCTURE
     1 UNK         1 GROUP             0       ****    0 ROOT    
