@<TRIPOS>MOLECULE
3R137
137   139    1
SMALL
USER_CHARGES


@<TRIPOS>ATOM
      1 CA         25.3705   -6.2576   -4.9992 C.3       0 UNK        -0.2020 
      2 C          25.7729   -5.4753   -3.7588 C.2       0 UNK         0.4855 
      3 O          24.9107   -4.9327   -3.0666 O.2       0 UNK        -0.5197 
      4 N          27.0819   -5.4147   -3.4808 N.am      1 UNK        -0.4892 
      5 CA         27.7045   -4.7167   -2.3481 C.3       1 UNK         0.0835 
      6 C6         29.2408   -4.9433   -2.3460 C.3       12 UNK        -0.0855 
      7 S7         29.9604   -5.1605   -0.6799 S.3       12 UNK        -0.2931 
      8 C8         30.4053   -3.4727   -0.1334 C.3       12 UNK         0.0378 
      9 C9         31.0420   -2.6029   -1.2126 C.ar      12 UNK        -0.0802 
     10 C10        32.1165   -3.0628   -1.9801 C.ar      12 UNK        -0.0944 
     11 C11        32.6308   -2.2775   -3.0156 C.ar      12 UNK        -0.0787 
     12 C12        32.0906   -1.0109   -3.2581 C.ar      12 UNK        -0.0862 
     13 C13        31.0278   -0.5275   -2.4902 C.ar      12 UNK        -0.0733 
     14 C14        30.5238   -1.3292   -1.4571 C.ar      12 UNK        -0.0832 
     15 C15        30.4384    0.8483   -2.8105 C.3       12 UNK         0.0240 
     16 S16        28.6755    0.9905   -2.3708 S.3       12 UNK        -0.2522 
     17 C17        28.0746    2.3408   -3.4312 C.3       12 UNK        -0.0967 
     18 CA         27.9412    1.9986   -4.9447 C.3       5 UNK         0.0660 
     19 N          27.7156    0.5808   -5.2408 N.am      5 UNK        -0.4015 
     20 C          27.8770    0.0254   -6.4508 C.2       4 UNK         0.4946 
     21 O          28.3351    0.6242   -7.4256 O.2       4 UNK        -0.5353 
     22 CA         27.4432   -1.4375   -6.6204 C.3       4 UNK         0.0277 
     23 CB         28.6392   -2.3807   -6.4094 C.3       4 UNK        -0.1981 
     24 N          26.3395   -1.7943   -5.7239 N.am      4 UNK        -0.4209 
     25 C          25.0833   -1.3437   -5.8819 C.2       3 UNK         0.4942 
     26 O          24.7371   -0.6291   -6.8212 O.2       3 UNK        -0.5208 
     27 CA         24.0412   -1.6968   -4.8059 C.3       3 UNK         0.0250 
     28 CB         23.2032   -2.9094   -5.2368 C.3       3 UNK        -0.1990 
     29 N          24.6286   -1.9342   -3.4862 N.am      3 UNK        -0.4232 
     30 C          25.2129   -0.9774   -2.7482 C.2       2 UNK         0.4993 
     31 O          25.2695    0.2047   -3.0950 O.2       2 UNK        -0.5286 
     32 CA         25.8938   -1.4199   -1.4367 C.3       2 UNK         0.0209 
     33 CB         24.9129   -1.3050   -0.2598 C.3       2 UNK        -0.1931 
     34 N          26.4536   -2.7786   -1.4741 N.am      2 UNK        -0.4546 
     35 C          27.3452   -3.2158   -2.3760 C.2       1 UNK         0.5154 
     36 O          27.8095   -2.5030   -3.2662 O.2       1 UNK        -0.5181 
     37 C          26.8281    2.8454   -5.5865 C.2       5 UNK         0.5014 
     38 O          27.1262    3.8308   -6.2605 O.2       5 UNK        -0.5248 
     39 N          25.5685    2.4211   -5.3890 N.am      6 UNK        -0.4434 
     40 CA         24.3670    3.0583   -5.9398 C.3       6 UNK         0.0363 
     41 CB         23.1148    2.3647   -5.3812 C.3       6 UNK        -0.1936 
     42 C          24.3368    3.0751   -7.4785 C.2       6 UNK         0.5081 
     43 O          23.9309    4.0776   -8.0662 O.2       6 UNK        -0.5248 
     44 N          24.8034    1.9847   -8.1019 N.am      7 UNK        -0.4718 
     45 CA         24.9842    1.8580   -9.5511 C.3       7 UNK         0.0273 
     46 CB         25.1257    0.3668   -9.9011 C.3       7 UNK        -0.1935 
     47 C          26.1891    2.6455  -10.1032 C.2       7 UNK         0.5018 
     48 O          26.3215    2.7395  -11.3240 O.2       7 UNK        -0.5186 
     49 N          27.0545    3.1613   -9.2148 N.am      8 UNK        -0.4240 
     50 CA         28.3264    3.8415   -9.4923 C.3       8 UNK         0.0235 
     51 CB         28.0957    5.1731  -10.2384 C.3       8 UNK        -0.2000 
     52 C          29.3645    2.9339  -10.1836 C.2       8 UNK         0.4941 
     53 O          30.2270    3.4309  -10.9102 O.2       8 UNK        -0.5273 
     54 N          29.2710    1.6212   -9.9348 N.am      9 UNK        -0.4262 
     55 CA         30.2105    0.6088  -10.4112 C.3       9 UNK         0.0264 
     56 CB         29.4759   -0.7319  -10.5804 C.3       9 UNK        -0.1955 
     57 C          31.3895    0.4634   -9.4406 C.2       9 UNK         0.5031 
     58 O          32.5308    0.3602   -9.8909 O.2       9 UNK        -0.5390 
     59 N          31.0833    0.4538   -8.1324 N.am      10 UNK        -0.4204 
     60 CA         32.0038    0.4041   -6.9875 C.3       10 UNK         0.0237 
     61 CB         32.5993    1.8046   -6.7399 C.3       10 UNK        -0.1985 
     62 C          33.0828   -0.6983   -7.0776 C.2       10 UNK         0.4970 
     63 O          34.2380   -0.4580   -6.7233 O.2       10 UNK        -0.4914 
     64 N          32.6777   -1.8793   -7.5630 N.am      11 UNK        -0.4285 
     65 CA         33.5229   -3.0588   -7.8273 C.3       11 UNK         0.1007 
     66 C          34.5117   -2.9001   -9.0239 C.2       11 UNK         0.5703 
     67 N          34.4113   -1.8652   -9.8502 N.am      11 UNK        -0.7361 
     68 O          35.3706   -3.7539   -9.2337 O.2       11 UNK        -0.4986 
     69 C69        34.2219   -3.6376   -6.5597 C.3       12 UNK        -0.0947 
     70 S70        33.0704   -3.9237   -5.1729 S.3       12 UNK        -0.2240 
     71 C71        33.7445   -2.8091   -3.9002 C.3       12 UNK         0.0194 
     72 H72        24.3680   -6.6687   -4.8813 H         1 UNK         0.0906 
     73 H73        25.3736   -5.6088   -5.8744 H         1 UNK         0.0906 
     74 H74        26.0524   -7.0874   -5.1844 H         1 UNK         0.0906 
     75 H75        27.7283   -5.8642   -4.1135 H         1 UNK         0.3140 
     76 H76        27.2823   -5.1598   -1.4436 H         1 UNK         0.1085 
     77 H77        29.4747   -5.8744   -2.8648 H         1 UNK         0.0836 
     78 H78        29.7732   -4.1829   -2.9192 H         1 UNK         0.0836 
     79 H79        31.0940   -3.5473    0.7091 H         1 UNK         0.0731 
     80 H80        29.5015   -2.9998    0.2544 H         1 UNK         0.0731 
     81 H81        32.5216   -4.0496   -1.8018 H         1 UNK         0.1312 
     82 H82        32.4933   -0.4052   -4.0573 H         1 UNK         0.1406 
     83 H83        29.7016   -0.9768   -0.8511 H         1 UNK         0.1631 
     84 H84        30.5482    1.0519   -3.8764 H         1 UNK         0.0717 
     85 H85        31.0036    1.6163   -2.2813 H         1 UNK         0.0717 
     86 H86        27.1111    2.6280   -3.0035 H         1 UNK         0.0934 
     87 H87        28.7205    3.2107   -3.2992 H         1 UNK         0.0934 
     88 H88        28.8823    2.2768   -5.4247 H         1 UNK         0.0739 
     89 H89        27.3698    0.0148   -4.4772 H         1 UNK         0.3093 
     90 H90        27.0946   -1.5626   -7.6477 H         1 UNK         0.0818 
     91 H91        29.3930   -2.2253   -7.1814 H         1 UNK         0.0819 
     92 H92        29.1280   -2.2166   -5.4483 H         1 UNK         0.0819 
     93 H93        28.3371   -3.4268   -6.4582 H         1 UNK         0.0819 
     94 H94        26.5888   -2.3047   -4.8829 H         1 UNK         0.3041 
     95 H95        23.3662   -0.8439   -4.7143 H         1 UNK         0.0784 
     96 H96        22.6850   -2.7081   -6.1755 H         1 UNK         0.0793 
     97 H97        23.8194   -3.7934   -5.3917 H         1 UNK         0.0793 
     98 H98        22.4444   -3.1543   -4.4935 H         1 UNK         0.0793 
     99 H99        24.6485   -2.8944   -3.1547 H         1 UNK         0.3024 
    100 H100       26.7208   -0.7335   -1.2550 H         1 UNK         0.1171 
    101 H101       25.4058   -1.5119    0.6904 H         1 UNK         0.0786 
    102 H102       24.4990   -0.2975   -0.1947 H         1 UNK         0.0786 
    103 H103       24.0751   -1.9959   -0.3631 H         1 UNK         0.0786 
    104 H104       26.0736   -3.4391   -0.8109 H         1 UNK         0.2977 
    105 H105       25.4222    1.6127   -4.7940 H         1 UNK         0.3127 
    106 H106       24.3636    4.0956   -5.5986 H         1 UNK         0.0770 
    107 H107       23.0446    1.3296   -5.7157 H         1 UNK         0.0814 
    108 H108       22.2089    2.8741   -5.7123 H         1 UNK         0.0814 
    109 H109       23.1089    2.3674   -4.2910 H         1 UNK         0.0814 
    110 H110       25.0256    1.1632   -7.5453 H         1 UNK         0.2983 
    111 H111       24.0905    2.2451  -10.0454 H         1 UNK         0.0947 
    112 H112       25.2221    0.2216  -10.9779 H         1 UNK         0.0806 
    113 H113       24.2542   -0.2016   -9.5758 H         1 UNK         0.0806 
    114 H114       26.0065   -0.0736   -9.4320 H         1 UNK         0.0806 
    115 H115       26.8405    3.0503   -8.2303 H         1 UNK         0.3000 
    116 H116       28.7515    4.0840   -8.5172 H         1 UNK         0.0850 
    117 H117       29.0190    5.7498  -10.3038 H         1 UNK         0.0810 
    118 H118       27.3635    5.7941   -9.7222 H         1 UNK         0.0810 
    119 H119       27.7420    5.0119  -11.2571 H         1 UNK         0.0810 
    120 H120       28.5815    1.3157   -9.2549 H         1 UNK         0.3040 
    121 H121       30.6051    0.9070  -11.3851 H         1 UNK         0.0766 
    122 H122       28.6694   -0.6486  -11.3092 H         1 UNK         0.0812 
    123 H123       29.0418   -1.0829   -9.6435 H         1 UNK         0.0812 
    124 H124       30.1559   -1.5066  -10.9375 H         1 UNK         0.0812 
    125 H125       30.0967    0.5378   -7.8910 H         1 UNK         0.3205 
    126 H126       31.3883    0.1499   -6.1238 H         1 UNK         0.0754 
    127 H127       33.2003    1.8239   -5.8298 H         1 UNK         0.0769 
    128 H128       31.8154    2.5532   -6.6238 H         1 UNK         0.0769 
    129 H129       33.2414    2.1170   -7.5645 H         1 UNK         0.0769 
    130 H130       31.7145   -1.9706   -7.8459 H         1 UNK         0.2981 
    131 H131       32.8213   -3.8210   -8.1674 H         1 UNK         0.0541 
    132 H132       33.7156   -1.1375   -9.7127 H         1 UNK         0.3459 
    133 H133       35.0549   -1.7950  -10.6217 H         1 UNK         0.3459 
    134 H134       35.0410   -2.9903   -6.2440 H         1 UNK         0.0612 
    135 H135       34.6813   -4.5998   -6.7920 H         1 UNK         0.0612 
    136 H136       34.4807   -3.3472   -3.3017 H         1 UNK         0.0624 
    137 H137       34.2728   -1.9754   -4.3643 H         1 UNK         0.0624 
@<TRIPOS>BOND
     1    1    2 1    
     2    1   72 1    
     3    1   73 1    
     4    1   74 1    
     5    2    3 2    
     6    2    4 am   BACKBONE|DICT|INTERRES
     7    4    5 1    
     8    4   75 1    
     9    5    6 1    
    10    5   35 1    
    11    5   76 1    
    12    6    7 1    
    13    6   77 1    
    14    6   78 1    
    15    7    8 1    
    16    8    9 1    
    17    8   79 1    
    18    8   80 1    
    19    9   10 ar   
    20    9   14 ar   
    21   10   11 ar   
    22   10   81 1    
    23   11   12 ar   
    24   11   71 1    
    25   12   13 ar   
    26   12   82 1    
    27   13   14 ar   
    28   13   15 1    
    29   14   83 1    
    30   15   16 1    
    31   15   84 1    
    32   15   85 1    
    33   16   17 1    
    34   17   18 1    
    35   17   86 1    
    36   17   87 1    
    37   18   19 1    
    38   18   37 1    
    39   18   88 1    
    40   19   20 am   BACKBONE|DICT|INTERRES
    41   19   89 1    
    42   20   21 2    
    43   20   22 1    
    44   22   23 1    
    45   22   24 1    
    46   22   90 1    
    47   23   91 1    
    48   23   92 1    
    49   23   93 1    
    50   24   25 am   BACKBONE|DICT|INTERRES
    51   24   94 1    
    52   25   26 2    
    53   25   27 1    
    54   27   28 1    
    55   27   29 1    
    56   27   95 1    
    57   28   96 1    
    58   28   97 1    
    59   28   98 1    
    60   29   30 am   BACKBONE|DICT|INTERRES
    61   29   99 1    
    62   30   31 2    
    63   30   32 1    
    64   32   33 1    
    65   32   34 1    
    66   32  100 1    
    67   33  101 1    
    68   33  102 1    
    69   33  103 1    
    70   34   35 am   BACKBONE|DICT|INTERRES
    71   34  104 1    
    72   35   36 2    
    73   37   38 2    
    74   37   39 am   BACKBONE|DICT|INTERRES
    75   39   40 1    
    76   39  105 1    
    77   40   41 1    
    78   40   42 1    
    79   40  106 1    
    80   41  107 1    
    81   41  108 1    
    82   41  109 1    
    83   42   43 2    
    84   42   44 am   BACKBONE|DICT|INTERRES
    85   44   45 1    
    86   44  110 1    
    87   45   46 1    
    88   45   47 1    
    89   45  111 1    
    90   46  112 1    
    91   46  113 1    
    92   46  114 1    
    93   47   48 2    
    94   47   49 am   BACKBONE|DICT|INTERRES
    95   49   50 1    
    96   49  115 1    
    97   50   51 1    
    98   50   52 1    
    99   50  116 1    
   100   51  117 1    
   101   51  118 1    
   102   51  119 1    
   103   52   53 2    
   104   52   54 am   BACKBONE|DICT|INTERRES
   105   54   55 1    
   106   54  120 1    
   107   55   56 1    
   108   55   57 1    
   109   55  121 1    
   110   56  122 1    
   111   56  123 1    
   112   56  124 1    
   113   57   58 2    
   114   57   59 am   BACKBONE|DICT|INTERRES
   115   59   60 1    
   116   59  125 1    
   117   60   61 1    
   118   60   62 1    
   119   60  126 1    
   120   61  127 1    
   121   61  128 1    
   122   61  129 1    
   123   62   63 2    
   124   62   64 am   BACKBONE|DICT|INTERRES
   125   64   65 1    
   126   64  130 1    
   127   65   66 1    
   128   65   69 1    
   129   65  131 1    
   130   66   67 am   BACKBONE|DICT|INTERRES
   131   66   68 2    
   132   67  132 1    
   133   67  133 1    
   134   69   70 1    
   135   69  134 1    
   136   69  135 1    
   137   70   71 1    
   138   71  136 1    
   139   71  137 1    
@<TRIPOS>SUBSTRUCTURE
     1 UNK         1 GROUP             0       ****    0 ROOT    
