@<TRIPOS>MOLECULE
3R137
137   139    1
SMALL
USER_CHARGES


@<TRIPOS>ATOM
      1 CA         28.2221   -5.4775   -5.6925 C.3       0 UNK        -0.2020 
      2 C          27.1689   -4.8775   -4.7735 C.2       0 UNK         0.4855 
      3 O          25.9888   -4.8608   -5.1237 O.2       0 UNK        -0.5197 
      4 N          27.5932   -4.3811   -3.6046 N.am      1 UNK        -0.4892 
      5 CA         26.7764   -3.7737   -2.5456 C.3       1 UNK         0.0835 
      6 C6         27.6460   -3.3558   -1.3311 C.3       12 UNK        -0.0855 
      7 S7         28.6963   -4.7158   -0.7198 S.3       12 UNK        -0.2931 
      8 C8         30.0480   -3.7957    0.0835 C.3       12 UNK         0.0378 
      9 C9         30.9336   -3.0228   -0.8909 C.ar      12 UNK        -0.0802 
     10 C10        31.6257   -3.6895   -1.9087 C.ar      12 UNK        -0.0944 
     11 C11        32.5232   -3.0003   -2.7325 C.ar      12 UNK        -0.0787 
     12 C12        32.7219   -1.6306   -2.5322 C.ar      12 UNK        -0.0862 
     13 C13        32.0314   -0.9494   -1.5243 C.ar      12 UNK        -0.0733 
     14 C14        31.1293   -1.6482   -0.7161 C.ar      12 UNK        -0.0832 
     15 C15        32.3357    0.5179   -1.2509 C.3       12 UNK         0.0240 
     16 S16        31.7270    1.6218   -2.5614 S.3       12 UNK        -0.2522 
     17 C17        29.9966    1.9173   -2.0578 C.3       12 UNK        -0.0967 
     18 CA         29.0604    1.9667   -3.2912 C.3       5 UNK         0.0660 
     19 N          29.0356    0.6750   -3.9858 N.am      5 UNK        -0.4015 
     20 C          28.6565    0.4512   -5.2491 C.2       4 UNK         0.4946 
     21 O          28.1735    1.3209   -5.9746 O.2       4 UNK        -0.5353 
     22 CA         28.8408   -0.9644   -5.8071 C.3       4 UNK         0.0277 
     23 CB         29.5908   -1.9187   -4.8591 C.3       4 UNK        -0.1981 
     24 N          27.5396   -1.5310   -6.1415 N.am      4 UNK        -0.4209 
     25 C          26.9115   -1.3916   -7.3165 C.2       3 UNK         0.4942 
     26 O          27.3838   -0.7840   -8.2777 O.2       3 UNK        -0.5208 
     27 CA         25.5338   -2.0608   -7.4625 C.3       3 UNK         0.0250 
     28 CB         25.6573   -3.3722   -8.2542 C.3       3 UNK        -0.1990 
     29 N          24.8932   -2.3200   -6.1707 N.am      3 UNK        -0.4232 
     30 C          24.3039   -1.3690   -5.4300 C.2       2 UNK         0.4993 
     31 O          24.1706   -0.2031   -5.8003 O.2       2 UNK        -0.5286 
     32 CA         23.8259   -1.7700   -4.0220 C.3       2 UNK         0.0209 
     33 CB         22.3803   -2.2890   -4.0696 C.3       2 UNK        -0.1931 
     34 N          24.6872   -2.7697   -3.3804 N.am      2 UNK        -0.4546 
     35 C          25.9766   -2.5669   -3.0758 C.2       1 UNK         0.5154 
     36 O          26.5543   -1.4945   -3.2585 O.2       1 UNK        -0.5181 
     37 C          27.6510    2.5254   -2.9740 C.2       5 UNK         0.5014 
     38 O          27.3572    2.8740   -1.8287 O.2       5 UNK        -0.5248 
     39 N          26.8250    2.6365   -4.0164 N.am      6 UNK        -0.4434 
     40 CA         25.5407    3.3186   -4.0709 C.3       6 UNK         0.0363 
     41 CB         24.4194    2.4654   -3.4521 C.3       6 UNK        -0.1936 
     42 C          25.2712    3.7039   -5.5315 C.2       6 UNK         0.5081 
     43 O          25.2366    4.8957   -5.8383 O.2       6 UNK        -0.5248 
     44 N          25.1263    2.7048   -6.4165 N.am      7 UNK        -0.4718 
     45 CA         24.9110    2.9173   -7.8551 C.3       7 UNK         0.0273 
     46 CB         24.2730    1.6643   -8.4713 C.3       7 UNK        -0.1935 
     47 C          26.1876    3.2843   -8.6348 C.2       7 UNK         0.5018 
     48 O          26.0772    3.9347   -9.6748 O.2       7 UNK        -0.5186 
     49 N          27.3580    2.8537   -8.1395 N.am      8 UNK        -0.4240 
     50 CA         28.6973    3.0283   -8.7158 C.3       8 UNK         0.0235 
     51 CB         29.0966    4.5195   -8.7508 C.3       8 UNK        -0.2000 
     52 C          28.8836    2.3149  -10.0700 C.2       8 UNK         0.4941 
     53 O          29.6109    2.8178  -10.9293 O.2       8 UNK        -0.5273 
     54 N          28.2354    1.1542  -10.2377 N.am      9 UNK        -0.4262 
     55 CA         28.3714    0.2933  -11.4136 C.3       9 UNK         0.0264 
     56 CB         27.0270   -0.3954  -11.7056 C.3       9 UNK        -0.1955 
     57 C          29.4863   -0.7440  -11.2084 C.2       9 UNK         0.5031 
     58 O          30.2921   -0.9555  -12.1162 O.2       9 UNK        -0.5390 
     59 N          29.5112   -1.3648  -10.0234 N.am      10 UNK        -0.4204 
     60 CA         30.5179   -2.3331   -9.5902 C.3       10 UNK         0.0237 
     61 CB         29.8064   -3.4574   -8.8150 C.3       10 UNK        -0.1985 
     62 C          31.5806   -1.6576   -8.7076 C.2       10 UNK         0.4970 
     63 O          31.3993   -0.5131   -8.2840 O.2       10 UNK        -0.4914 
     64 N          32.6522   -2.4076   -8.4186 N.am      11 UNK        -0.4285 
     65 CA         33.7584   -2.0325   -7.5196 C.3       11 UNK         0.1007 
     66 C          34.5428   -0.7728   -8.0054 C.2       11 UNK         0.5703 
     67 N          35.1858   -0.0231   -7.1190 N.am      11 UNK        -0.7361 
     68 O          34.6294   -0.5012   -9.2021 O.2       11 UNK        -0.4986 
     69 C69        33.3161   -1.9882   -6.0238 C.3       12 UNK        -0.0947 
     70 S70        32.6252   -3.5845   -5.4584 S.3       12 UNK        -0.2240 
     71 C71        33.3289   -3.7513   -3.7869 C.3       12 UNK         0.0194 
     72 H72        29.2117   -5.4788   -5.2355 H         1 UNK         0.0906 
     73 H73        27.9617   -6.5066   -5.9381 H         1 UNK         0.0906 
     74 H74        28.2792   -4.9108   -6.6202 H         1 UNK         0.0906 
     75 H75        28.5739   -4.4511   -3.3721 H         1 UNK         0.3140 
     76 H76        26.0688   -4.5332   -2.2064 H         1 UNK         0.1085 
     77 H77        27.0144   -3.0144   -0.5087 H         1 UNK         0.0836 
     78 H78        28.2881   -2.5121   -1.5908 H         1 UNK         0.0836 
     79 H79        30.6725   -4.5048    0.6286 H         1 UNK         0.0731 
     80 H80        29.6195   -3.1305    0.8350 H         1 UNK         0.0731 
     81 H81        31.4886   -4.7547   -2.0360 H         1 UNK         0.1312 
     82 H82        33.4344   -1.0953   -3.1442 H         1 UNK         0.1406 
     83 H83        30.6164   -1.1303    0.0832 H         1 UNK         0.1631 
     84 H84        33.4171    0.6404   -1.1749 H         1 UNK         0.0717 
     85 H85        31.9315    0.8343   -0.2880 H         1 UNK         0.0717 
     86 H86        29.6669    1.1490   -1.3560 H         1 UNK         0.0934 
     87 H87        29.9748    2.8629   -1.5122 H         1 UNK         0.0934 
     88 H88        29.4947    2.6887   -3.9868 H         1 UNK         0.0739 
     89 H89        29.3851   -0.1079   -3.4543 H         1 UNK         0.3093 
     90 H90        29.4328   -0.8643   -6.7154 H         1 UNK         0.0818 
     91 H91        30.5816   -1.5331   -4.6199 H         1 UNK         0.0819 
     92 H92        29.0672   -2.0725   -3.9173 H         1 UNK         0.0819 
     93 H93        29.7336   -2.8937   -5.3225 H         1 UNK         0.0819 
     94 H94        27.0271   -1.9372   -5.3704 H         1 UNK         0.3041 
     95 H95        24.8943   -1.3908   -8.0379 H         1 UNK         0.0784 
     96 H96        26.0984   -3.1943   -9.2361 H         1 UNK         0.0793 
     97 H97        26.2870   -4.0996   -7.7433 H         1 UNK         0.0793 
     98 H98        24.6814   -3.8300   -8.4162 H         1 UNK         0.0793 
     99 H99        25.0057   -3.2527   -5.7817 H         1 UNK         0.3024 
    100 H100       23.8471   -0.8696   -3.4043 H         1 UNK         0.1171 
    101 H101       21.9978   -2.4916   -3.0690 H         1 UNK         0.0786 
    102 H102       21.7171   -1.5520   -4.5250 H         1 UNK         0.0786 
    103 H103       22.2987   -3.2064   -4.6540 H         1 UNK         0.0786 
    104 H104       24.2964   -3.6931   -3.2543 H         1 UNK         0.2977 
    105 H105       27.1820    2.2890   -4.9073 H         1 UNK         0.3127 
    106 H106       25.6191    4.2457   -3.4988 H         1 UNK         0.0770 
    107 H107       24.3823    1.4696   -3.8871 H         1 UNK         0.0814 
    108 H108       23.4441    2.9297   -3.6025 H         1 UNK         0.0814 
    109 H109       24.5619    2.3491   -2.3778 H         1 UNK         0.0814 
    110 H110       25.1068    1.7441   -6.0895 H         1 UNK         0.2983 
    111 H111       24.2069    3.7438   -7.9768 H         1 UNK         0.0947 
    112 H112       24.0144    1.8316   -9.5177 H         1 UNK         0.0806 
    113 H113       23.3579    1.3814   -7.9507 H         1 UNK         0.0806 
    114 H114       24.9583    0.8192   -8.4389 H         1 UNK         0.0806 
    115 H115       27.3493    2.2877   -7.2932 H         1 UNK         0.3000 
    116 H116       29.3836    2.5283   -8.0307 H         1 UNK         0.0850 
    117 H117       30.1438    4.6371   -9.0318 H         1 UNK         0.0810 
    118 H118       28.9704    4.9860   -7.7738 H         1 UNK         0.0810 
    119 H119       28.5025    5.0817   -9.4716 H         1 UNK         0.0810 
    120 H120       27.7135    0.7687   -9.4559 H         1 UNK         0.3040 
    121 H121       28.6304    0.8987  -12.2850 H         1 UNK         0.0766 
    122 H122       26.2417    0.3371  -11.8928 H         1 UNK         0.0812 
    123 H123       26.7019   -1.0284  -10.8794 H         1 UNK         0.0812 
    124 H124       27.0989   -1.0277  -12.5914 H         1 UNK         0.0812 
    125 H125       28.8150   -1.0993   -9.3285 H         1 UNK         0.3205 
    126 H126       31.0162   -2.7669  -10.4598 H         1 UNK         0.0754 
    127 H127       29.0158   -3.9125   -9.4120 H         1 UNK         0.0769 
    128 H128       29.3577   -3.0881   -7.8937 H         1 UNK         0.0769 
    129 H129       30.5004   -4.2525   -8.5400 H         1 UNK         0.0769 
    130 H130       32.7252   -3.3266   -8.8287 H         1 UNK         0.2981 
    131 H131       34.4828   -2.8423   -7.6120 H         1 UNK         0.0541 
    132 H132       35.7095    0.7743   -7.4441 H         1 UNK         0.3459 
    133 H133       35.1527   -0.2333   -6.1348 H         1 UNK         0.3459 
    134 H134       34.1663   -1.7463   -5.3863 H         1 UNK         0.0612 
    135 H135       32.5769   -1.2029   -5.8615 H         1 UNK         0.0612 
    136 H136       34.3667   -3.4157   -3.7797 H         1 UNK         0.0624 
    137 H137       33.3603   -4.8132   -3.5385 H         1 UNK         0.0624 
@<TRIPOS>BOND
     1    1    2 1    
     2    1   72 1    
     3    1   73 1    
     4    1   74 1    
     5    2    3 2    
     6    2    4 am   BACKBONE|DICT|INTERRES
     7    4    5 1    
     8    4   75 1    
     9    5    6 1    
    10    5   35 1    
    11    5   76 1    
    12    6    7 1    
    13    6   77 1    
    14    6   78 1    
    15    7    8 1    
    16    8    9 1    
    17    8   79 1    
    18    8   80 1    
    19    9   10 ar   
    20    9   14 ar   
    21   10   11 ar   
    22   10   81 1    
    23   11   12 ar   
    24   11   71 1    
    25   12   13 ar   
    26   12   82 1    
    27   13   14 ar   
    28   13   15 1    
    29   14   83 1    
    30   15   16 1    
    31   15   84 1    
    32   15   85 1    
    33   16   17 1    
    34   17   18 1    
    35   17   86 1    
    36   17   87 1    
    37   18   19 1    
    38   18   37 1    
    39   18   88 1    
    40   19   20 am   BACKBONE|DICT|INTERRES
    41   19   89 1    
    42   20   21 2    
    43   20   22 1    
    44   22   23 1    
    45   22   24 1    
    46   22   90 1    
    47   23   91 1    
    48   23   92 1    
    49   23   93 1    
    50   24   25 am   BACKBONE|DICT|INTERRES
    51   24   94 1    
    52   25   26 2    
    53   25   27 1    
    54   27   28 1    
    55   27   29 1    
    56   27   95 1    
    57   28   96 1    
    58   28   97 1    
    59   28   98 1    
    60   29   30 am   BACKBONE|DICT|INTERRES
    61   29   99 1    
    62   30   31 2    
    63   30   32 1    
    64   32   33 1    
    65   32   34 1    
    66   32  100 1    
    67   33  101 1    
    68   33  102 1    
    69   33  103 1    
    70   34   35 am   BACKBONE|DICT|INTERRES
    71   34  104 1    
    72   35   36 2    
    73   37   38 2    
    74   37   39 am   BACKBONE|DICT|INTERRES
    75   39   40 1    
    76   39  105 1    
    77   40   41 1    
    78   40   42 1    
    79   40  106 1    
    80   41  107 1    
    81   41  108 1    
    82   41  109 1    
    83   42   43 2    
    84   42   44 am   BACKBONE|DICT|INTERRES
    85   44   45 1    
    86   44  110 1    
    87   45   46 1    
    88   45   47 1    
    89   45  111 1    
    90   46  112 1    
    91   46  113 1    
    92   46  114 1    
    93   47   48 2    
    94   47   49 am   BACKBONE|DICT|INTERRES
    95   49   50 1    
    96   49  115 1    
    97   50   51 1    
    98   50   52 1    
    99   50  116 1    
   100   51  117 1    
   101   51  118 1    
   102   51  119 1    
   103   52   53 2    
   104   52   54 am   BACKBONE|DICT|INTERRES
   105   54   55 1    
   106   54  120 1    
   107   55   56 1    
   108   55   57 1    
   109   55  121 1    
   110   56  122 1    
   111   56  123 1    
   112   56  124 1    
   113   57   58 2    
   114   57   59 am   BACKBONE|DICT|INTERRES
   115   59   60 1    
   116   59  125 1    
   117   60   61 1    
   118   60   62 1    
   119   60  126 1    
   120   61  127 1    
   121   61  128 1    
   122   61  129 1    
   123   62   63 2    
   124   62   64 am   BACKBONE|DICT|INTERRES
   125   64   65 1    
   126   64  130 1    
   127   65   66 1    
   128   65   69 1    
   129   65  131 1    
   130   66   67 am   BACKBONE|DICT|INTERRES
   131   66   68 2    
   132   67  132 1    
   133   67  133 1    
   134   69   70 1    
   135   69  134 1    
   136   69  135 1    
   137   70   71 1    
   138   71  136 1    
   139   71  137 1    
@<TRIPOS>SUBSTRUCTURE
     1 UNK         1 GROUP             0       ****    0 ROOT    
