@<TRIPOS>MOLECULE
3R137
137   139    1
SMALL
USER_CHARGES


@<TRIPOS>ATOM
      1 CA         29.0485   -1.5305    3.3777 C.3       0 UNK        -0.2020 
      2 C          28.6962   -1.4833    1.8984 C.2       0 UNK         0.4855 
      3 O          28.3674   -0.4150    1.3813 O.2       0 UNK        -0.5197 
      4 N          28.7712   -2.6303    1.2124 N.am      1 UNK        -0.4892 
      5 CA         28.4300   -2.7859   -0.2071 C.3       1 UNK         0.0835 
      6 C6         28.9599   -4.1228   -0.7843 C.3       12 UNK        -0.0855 
      7 S7         30.7722   -4.2722   -0.6015 S.3       12 UNK        -0.2931 
      8 C8         31.1986   -5.4881   -1.8891 C.3       12 UNK         0.0378 
      9 C9         31.0529   -4.9159   -3.2920 C.ar      12 UNK        -0.0802 
     10 C10        31.9303   -3.9239   -3.7431 C.ar      12 UNK        -0.0944 
     11 C11        31.7979   -3.3873   -5.0276 C.ar      12 UNK        -0.0787 
     12 C12        30.7813   -3.8565   -5.8639 C.ar      12 UNK        -0.0862 
     13 C13        29.8937   -4.8433   -5.4221 C.ar      12 UNK        -0.0733 
     14 C14        30.0421   -5.3785   -4.1397 C.ar      12 UNK        -0.0832 
     15 C15        28.7387   -5.2859   -6.3113 C.3       12 UNK         0.0240 
     16 S16        27.1136   -4.7861   -5.6424 S.3       12 UNK        -0.2522 
     17 C17        27.3538   -3.0019   -5.3619 C.3       12 UNK        -0.0967 
     18 CA         26.9287   -2.1455   -6.5820 C.3       5 UNK         0.0660 
     19 N          25.5306   -1.7172   -6.4819 N.am      5 UNK        -0.4015 
     20 C          24.8514   -1.0307   -7.4115 C.2       4 UNK         0.4946 
     21 O          25.3041   -0.7184   -8.5110 O.2       4 UNK        -0.5353 
     22 CA         23.4395   -0.5664   -7.0215 C.3       4 UNK         0.0277 
     23 CB         22.4273   -1.7150   -7.1594 C.3       4 UNK        -0.1981 
     24 N          23.3910   -0.0189   -5.6631 N.am      4 UNK        -0.4209 
     25 C          24.0275    1.0966   -5.2755 C.2       3 UNK         0.4942 
     26 O          24.6826    1.8128   -6.0328 O.2       3 UNK        -0.5208 
     27 CA         23.9563    1.4454   -3.7791 C.3       3 UNK         0.0250 
     28 CB         22.6578    2.2036   -3.4601 C.3       3 UNK        -0.1990 
     29 N          24.0790    0.2777   -2.8968 N.am      3 UNK        -0.4232 
     30 C          25.1554   -0.5182   -2.8423 C.2       2 UNK         0.4993 
     31 O          26.1452   -0.3852   -3.5673 O.2       2 UNK        -0.5286 
     32 CA         25.1191   -1.6746   -1.8390 C.3       2 UNK         0.0209 
     33 CB         24.3675   -2.8907   -2.4143 C.3       2 UNK        -0.1931 
     34 N          26.5001   -2.0273   -1.5184 N.am      2 UNK        -0.4546 
     35 C          26.9051   -2.6578   -0.4122 C.2       1 UNK         0.5154 
     36 O          26.1315   -3.1308    0.4257 O.2       1 UNK        -0.5181 
     37 C          27.8750   -0.9439   -6.7494 C.2       5 UNK         0.5014 
     38 O          28.6761   -0.9303   -7.6856 O.2       5 UNK        -0.5248 
     39 N          27.7421    0.0414   -5.8496 N.am      6 UNK        -0.4434 
     40 CA         28.5193    1.2801   -5.8287 C.3       6 UNK         0.0363 
     41 CB         28.1000    2.1257   -4.6165 C.3       6 UNK        -0.1936 
     42 C          28.4030    2.0932   -7.1260 C.2       6 UNK         0.5081 
     43 O          29.4057    2.6510   -7.5716 O.2       6 UNK        -0.5248 
     44 N          27.1999    2.1225   -7.7143 N.am      7 UNK        -0.4718 
     45 CA         26.9325    2.7257   -9.0171 C.3       7 UNK         0.0273 
     46 CB         25.4190    2.9371   -9.1863 C.3       7 UNK        -0.1935 
     47 C          27.5066    1.8939  -10.1757 C.2       7 UNK         0.5018 
     48 O          28.2288    2.4453  -11.0062 O.2       7 UNK        -0.5186 
     49 N          27.1745    0.5943  -10.2208 N.am      8 UNK        -0.4240 
     50 CA         27.5203   -0.3167  -11.3174 C.3       8 UNK         0.0235 
     51 CB         26.7676   -1.6470  -11.1527 C.3       8 UNK        -0.2000 
     52 C          29.0265   -0.5725  -11.4661 C.2       8 UNK         0.4941 
     53 O          29.5339   -0.5353  -12.5879 O.2       8 UNK        -0.5273 
     54 N          29.7142   -0.8240  -10.3446 N.am      9 UNK        -0.4262 
     55 CA         31.1596   -1.0665  -10.3140 C.3       9 UNK         0.0264 
     56 CB         31.4827   -2.0037   -9.1411 C.3       9 UNK        -0.1955 
     57 C          31.9812    0.2294  -10.2080 C.2       9 UNK         0.5031 
     58 O          33.2060    0.1650  -10.3198 O.2       9 UNK        -0.5390 
     59 N          31.3092    1.3651   -9.9625 N.am      10 UNK        -0.4204 
     60 CA         31.8637    2.7037   -9.7232 C.3       10 UNK         0.0237 
     61 CB         32.6154    3.2266  -10.9663 C.3       10 UNK        -0.1985 
     62 C          32.7032    2.8114   -8.4315 C.2       10 UNK         0.4970 
     63 O          33.4640    3.7704   -8.2883 O.2       10 UNK        -0.4914 
     64 N          32.5491    1.8488   -7.5109 N.am      11 UNK        -0.4285 
     65 CA         33.2141    1.8255   -6.2007 C.3       11 UNK         0.1007 
     66 C          32.5434    2.7212   -5.1185 C.2       11 UNK         0.5703 
     67 N          31.3951    3.3364   -5.3778 N.am      11 UNK        -0.7361 
     68 O          33.0917    2.8837   -4.0309 O.2       11 UNK        -0.4986 
     69 C69        33.4925    0.3771   -5.7143 C.3       12 UNK        -0.0947 
     70 S70        32.0105   -0.6476   -5.4189 S.3       12 UNK        -0.2240 
     71 C71        32.7546   -2.3069   -5.5119 C.3       12 UNK         0.0194 
     72 H72        29.3375   -2.5318    3.6968 H         1 UNK         0.0906 
     73 H73        29.8779   -0.8556    3.5877 H         1 UNK         0.0906 
     74 H74        28.1939   -1.2173    3.9768 H         1 UNK         0.0906 
     75 H75        29.0415   -3.4798    1.6870 H         1 UNK         0.3140 
     76 H76        28.9121   -1.9694   -0.7504 H         1 UNK         0.1085 
     77 H77        28.4884   -4.9751   -0.2908 H         1 UNK         0.0836 
     78 H78        28.7033   -4.1992   -1.8425 H         1 UNK         0.0836 
     79 H79        32.2313   -5.8076   -1.7423 H         1 UNK         0.0731 
     80 H80        30.5825   -6.3796   -1.7611 H         1 UNK         0.0731 
     81 H81        32.7104   -3.5634   -3.0863 H         1 UNK         0.1312 
     82 H82        30.6620   -3.4305   -6.8490 H         1 UNK         0.1406 
     83 H83        29.3499   -6.1353   -3.7954 H         1 UNK         0.1631 
     84 H84        28.7606   -6.3711   -6.4193 H         1 UNK         0.0717 
     85 H85        28.8452   -4.8749   -7.3166 H         1 UNK         0.0717 
     86 H86        26.7837   -2.7290   -4.4760 H         1 UNK         0.0934 
     87 H87        28.3857   -2.8141   -5.0668 H         1 UNK         0.0934 
     88 H88        27.0233   -2.7401   -7.4933 H         1 UNK         0.0739 
     89 H89        25.0743   -1.8979   -5.6018 H         1 UNK         0.3093 
     90 H90        23.1508    0.2280   -7.7134 H         1 UNK         0.0818 
     91 H91        21.4104   -1.3719   -6.9682 H         1 UNK         0.0819 
     92 H92        22.4429   -2.1270   -8.1695 H         1 UNK         0.0819 
     93 H93        22.6407   -2.5335   -6.4707 H         1 UNK         0.0819 
     94 H94        22.8643   -0.5358   -4.9743 H         1 UNK         0.3041 
     95 H95        24.7962    2.1086   -3.5612 H         1 UNK         0.0784 
     96 H96        22.5557    3.0852   -4.0948 H         1 UNK         0.0793 
     97 H97        21.7748    1.5834   -3.6196 H         1 UNK         0.0793 
     98 H98        22.6438    2.5492   -2.4262 H         1 UNK         0.0793 
     99 H99        23.3036    0.0974   -2.2745 H         1 UNK         0.3024 
    100 H100       24.6206   -1.3288   -0.9302 H         1 UNK         0.1171 
    101 H101       24.8469   -3.2834   -3.3105 H         1 UNK         0.0786 
    102 H102       24.3131   -3.7017   -1.6879 H         1 UNK         0.0786 
    103 H103       23.3418   -2.6308   -2.6788 H         1 UNK         0.0786 
    104 H104       27.1767   -1.6256   -2.1568 H         1 UNK         0.2977 
    105 H105       27.0721   -0.0794   -5.0906 H         1 UNK         0.3127 
    106 H106       29.5675    1.0041   -5.7082 H         1 UNK         0.0770 
    107 H107       27.0431    2.3893   -4.6571 H         1 UNK         0.0814 
    108 H108       28.6650    3.0569   -4.5706 H         1 UNK         0.0814 
    109 H109       28.2763    1.5925   -3.6822 H         1 UNK         0.0814 
    110 H110       26.4169    1.6838   -7.2409 H         1 UNK         0.2983 
    111 H111       27.4141    3.7060   -9.0430 H         1 UNK         0.0947 
    112 H112       25.1925    3.3913  -10.1518 H         1 UNK         0.0806 
    113 H113       25.0251    3.5995   -8.4151 H         1 UNK         0.0806 
    114 H114       24.8678    1.9978   -9.1279 H         1 UNK         0.0806 
    115 H115       26.5701    0.2125   -9.4945 H         1 UNK         0.3000 
    116 H116       27.1775    0.1482  -12.2443 H         1 UNK         0.0850 
    117 H117       27.0047   -2.3361  -11.9644 H         1 UNK         0.0810 
    118 H118       25.6882   -1.4946  -11.1630 H         1 UNK         0.0810 
    119 H119       27.0257   -2.1424  -10.2156 H         1 UNK         0.0810 
    120 H120       29.2273   -0.8423   -9.4479 H         1 UNK         0.3040 
    121 H121       31.4627   -1.5686  -11.2353 H         1 UNK         0.0766 
    122 H122       31.2327   -1.5436   -8.1857 H         1 UNK         0.0812 
    123 H123       32.5447   -2.2515   -9.1164 H         1 UNK         0.0812 
    124 H124       30.9323   -2.9410   -9.2212 H         1 UNK         0.0812 
    125 H125       30.3020    1.3026   -9.8934 H         1 UNK         0.3205 
    126 H126       31.0029    3.3563   -9.5724 H         1 UNK         0.0754 
    127 H127       32.8781    4.2789  -10.8513 H         1 UNK         0.0769 
    128 H128       32.0012    3.1449  -11.8633 H         1 UNK         0.0769 
    129 H129       33.5420    2.6795  -11.1418 H         1 UNK         0.0769 
    130 H130       31.8756    1.1174   -7.6796 H         1 UNK         0.2981 
    131 H131       34.1992    2.2740   -6.3423 H         1 UNK         0.0541 
    132 H132       30.9195    3.1977   -6.2612 H         1 UNK         0.3459 
    133 H133       30.9911    3.9315   -4.6735 H         1 UNK         0.3459 
    134 H134       34.0831    0.3925   -4.7966 H         1 UNK         0.0612 
    135 H135       34.1151   -0.1284   -6.4544 H         1 UNK         0.0612 
    136 H136       33.0546   -2.5116   -6.5404 H         1 UNK         0.0624 
    137 H137       33.6687   -2.3227   -4.9162 H         1 UNK         0.0624 
@<TRIPOS>BOND
     1    1    2 1    
     2    1   72 1    
     3    1   73 1    
     4    1   74 1    
     5    2    3 2    
     6    2    4 am   BACKBONE|DICT|INTERRES
     7    4    5 1    
     8    4   75 1    
     9    5    6 1    
    10    5   35 1    
    11    5   76 1    
    12    6    7 1    
    13    6   77 1    
    14    6   78 1    
    15    7    8 1    
    16    8    9 1    
    17    8   79 1    
    18    8   80 1    
    19    9   10 ar   
    20    9   14 ar   
    21   10   11 ar   
    22   10   81 1    
    23   11   12 ar   
    24   11   71 1    
    25   12   13 ar   
    26   12   82 1    
    27   13   14 ar   
    28   13   15 1    
    29   14   83 1    
    30   15   16 1    
    31   15   84 1    
    32   15   85 1    
    33   16   17 1    
    34   17   18 1    
    35   17   86 1    
    36   17   87 1    
    37   18   19 1    
    38   18   37 1    
    39   18   88 1    
    40   19   20 am   BACKBONE|DICT|INTERRES
    41   19   89 1    
    42   20   21 2    
    43   20   22 1    
    44   22   23 1    
    45   22   24 1    
    46   22   90 1    
    47   23   91 1    
    48   23   92 1    
    49   23   93 1    
    50   24   25 am   BACKBONE|DICT|INTERRES
    51   24   94 1    
    52   25   26 2    
    53   25   27 1    
    54   27   28 1    
    55   27   29 1    
    56   27   95 1    
    57   28   96 1    
    58   28   97 1    
    59   28   98 1    
    60   29   30 am   BACKBONE|DICT|INTERRES
    61   29   99 1    
    62   30   31 2    
    63   30   32 1    
    64   32   33 1    
    65   32   34 1    
    66   32  100 1    
    67   33  101 1    
    68   33  102 1    
    69   33  103 1    
    70   34   35 am   BACKBONE|DICT|INTERRES
    71   34  104 1    
    72   35   36 2    
    73   37   38 2    
    74   37   39 am   BACKBONE|DICT|INTERRES
    75   39   40 1    
    76   39  105 1    
    77   40   41 1    
    78   40   42 1    
    79   40  106 1    
    80   41  107 1    
    81   41  108 1    
    82   41  109 1    
    83   42   43 2    
    84   42   44 am   BACKBONE|DICT|INTERRES
    85   44   45 1    
    86   44  110 1    
    87   45   46 1    
    88   45   47 1    
    89   45  111 1    
    90   46  112 1    
    91   46  113 1    
    92   46  114 1    
    93   47   48 2    
    94   47   49 am   BACKBONE|DICT|INTERRES
    95   49   50 1    
    96   49  115 1    
    97   50   51 1    
    98   50   52 1    
    99   50  116 1    
   100   51  117 1    
   101   51  118 1    
   102   51  119 1    
   103   52   53 2    
   104   52   54 am   BACKBONE|DICT|INTERRES
   105   54   55 1    
   106   54  120 1    
   107   55   56 1    
   108   55   57 1    
   109   55  121 1    
   110   56  122 1    
   111   56  123 1    
   112   56  124 1    
   113   57   58 2    
   114   57   59 am   BACKBONE|DICT|INTERRES
   115   59   60 1    
   116   59  125 1    
   117   60   61 1    
   118   60   62 1    
   119   60  126 1    
   120   61  127 1    
   121   61  128 1    
   122   61  129 1    
   123   62   63 2    
   124   62   64 am   BACKBONE|DICT|INTERRES
   125   64   65 1    
   126   64  130 1    
   127   65   66 1    
   128   65   69 1    
   129   65  131 1    
   130   66   67 am   BACKBONE|DICT|INTERRES
   131   66   68 2    
   132   67  132 1    
   133   67  133 1    
   134   69   70 1    
   135   69  134 1    
   136   69  135 1    
   137   70   71 1    
   138   71  136 1    
   139   71  137 1    
@<TRIPOS>SUBSTRUCTURE
     1 UNK         1 GROUP             0       ****    0 ROOT    
