@<TRIPOS>MOLECULE
3R137
137   139    1
SMALL
USER_CHARGES


@<TRIPOS>ATOM
      1 CA         29.1801   -5.1602    1.7685 C.3       0 UNK        -0.2020 
      2 C          29.0190   -3.6518    1.6545 C.2       0 UNK         0.4855 
      3 O          29.9061   -2.9077    2.0733 O.2       0 UNK        -0.5197 
      4 N          27.8951   -3.1974    1.0939 N.am      1 UNK        -0.4892 
      5 CA         27.5344   -1.7919    0.9118 C.3       1 UNK         0.0835 
      6 C6         28.3839   -1.0755   -0.1791 C.3       12 UNK        -0.0855 
      7 S7         28.1388   -1.6868   -1.8859 S.3       12 UNK        -0.2931 
      8 C8         29.5187   -2.8652   -2.0608 C.3       12 UNK         0.0378 
      9 C9         29.9043   -3.0588   -3.5213 C.ar      12 UNK        -0.0802 
     10 C10        31.1313   -2.5858   -3.9965 C.ar      12 UNK        -0.0944 
     11 C11        31.4981   -2.7613   -5.3376 C.ar      12 UNK        -0.0787 
     12 C12        30.6067   -3.4063   -6.2036 C.ar      12 UNK        -0.0862 
     13 C13        29.3770   -3.8920   -5.7439 C.ar      12 UNK        -0.0733 
     14 C14        29.0434   -3.7270   -4.3950 C.ar      12 UNK        -0.0832 
     15 C15        28.4539   -4.6525   -6.6951 C.3       12 UNK         0.0240 
     16 S16        26.6824   -4.2498   -6.4799 S.3       12 UNK        -0.2522 
     17 C17        26.2193   -3.5259   -8.0940 C.3       12 UNK        -0.0967 
     18 CA         26.0797   -1.9843   -8.0817 C.3       5 UNK         0.0660 
     19 N          25.0967   -1.5172   -7.0942 N.am      5 UNK        -0.4015 
     20 C          24.6875   -0.2532   -6.9167 C.2       4 UNK         0.4946 
     21 O          25.0973    0.6907   -7.5938 O.2       4 UNK        -0.5353 
     22 CA         23.7075    0.0340   -5.7627 C.3       4 UNK         0.0277 
     23 CB         22.2486    0.0087   -6.2585 C.3       4 UNK        -0.1981 
     24 N          23.8917   -0.8029   -4.5636 N.am      4 UNK        -0.4209 
     25 C          23.6749   -2.1188   -4.4121 C.2       3 UNK         0.4942 
     26 O          23.2843   -2.8506   -5.3220 O.2       3 UNK        -0.5208 
     27 CA         23.9941   -2.7457   -3.0432 C.3       3 UNK         0.0250 
     28 CB         25.1351   -3.7662   -3.1748 C.3       3 UNK        -0.1990 
     29 N          24.3721   -1.7692   -2.0188 N.am      3 UNK        -0.4232 
     30 C          23.5146   -1.1246   -1.2157 C.2       2 UNK         0.4993 
     31 O          22.2906   -1.2086   -1.3282 O.2       2 UNK        -0.5286 
     32 CA         24.1219   -0.2329   -0.1081 C.3       2 UNK         0.0209 
     33 CB         23.2496   -0.2091    1.1659 C.3       2 UNK        -0.1931 
     34 N          25.5222   -0.5467    0.2289 N.am      2 UNK        -0.4546 
     35 C          26.0084   -1.7077    0.6987 C.2       1 UNK         0.5154 
     36 O          25.3082   -2.6964    0.9383 O.2       1 UNK        -0.5181 
     37 C          27.4555   -1.2959   -7.9715 C.2       5 UNK         0.5014 
     38 O          28.1596   -1.2055   -8.9765 O.2       5 UNK        -0.5248 
     39 N          27.7911   -0.7763   -6.7822 N.am      6 UNK        -0.4434 
     40 CA         28.9748    0.0390   -6.5161 C.3       6 UNK         0.0363 
     41 CB         29.0045    0.4175   -5.0287 C.3       6 UNK        -0.1936 
     42 C          29.0692    1.3048   -7.3851 C.2       6 UNK         0.5081 
     43 O          30.1791    1.7042   -7.7364 O.2       6 UNK        -0.5248 
     44 N          27.9203    1.8995   -7.7405 N.am      7 UNK        -0.4718 
     45 CA         27.8481    3.0599   -8.6312 C.3       7 UNK         0.0273 
     46 CB         26.4702    3.7279   -8.5023 C.3       7 UNK        -0.1935 
     47 C          28.1380    2.6881  -10.0941 C.2       7 UNK         0.5018 
     48 O          28.7932    3.4606  -10.7931 O.2       7 UNK        -0.5186 
     49 N          27.6714    1.5056  -10.5205 N.am      8 UNK        -0.4240 
     50 CA         27.9223    0.9453  -11.8509 C.3       8 UNK         0.0235 
     51 CB         26.9186   -0.1842  -12.1361 C.3       8 UNK        -0.2000 
     52 C          29.3686    0.4464  -12.0000 C.2       8 UNK         0.4941 
     53 O          29.9858    0.6751  -13.0405 O.2       8 UNK        -0.5273 
     54 N          29.8883   -0.2007  -10.9477 N.am      9 UNK        -0.4262 
     55 CA         31.2685   -0.6804  -10.8474 C.3       9 UNK         0.0264 
     56 CB         31.3661   -1.6632   -9.6681 C.3       9 UNK        -0.1955 
     57 C          32.3074    0.4447  -10.6829 C.2       9 UNK         0.5031 
     58 O          33.4888    0.1962  -10.9276 O.2       9 UNK        -0.5390 
     59 N          31.8590    1.6352  -10.2528 N.am      10 UNK        -0.4204 
     60 CA         32.6535    2.8112   -9.8777 C.3       10 UNK         0.0237 
     61 CB         33.3932    3.4018  -11.0972 C.3       10 UNK        -0.1985 
     62 C          33.5793    2.5011   -8.6861 C.2       10 UNK         0.4970 
     63 O          34.7857    2.7452   -8.7496 O.2       10 UNK        -0.4914 
     64 N          32.9827    1.9325   -7.6311 N.am      11 UNK        -0.4285 
     65 CA         33.6643    1.4607   -6.4170 C.3       11 UNK         0.1007 
     66 C          34.2382    2.5832   -5.5021 C.2       11 UNK         0.5703 
     67 N          33.8314    3.8379   -5.6576 N.am      11 UNK        -0.7361 
     68 O          35.0740    2.3132   -4.6431 O.2       11 UNK        -0.4986 
     69 C69        32.7575    0.4767   -5.6242 C.3       12 UNK        -0.0947 
     70 S70        33.6709   -0.9588   -4.9753 S.3       12 UNK        -0.2240 
     71 C71        32.8723   -2.3401   -5.8678 C.3       12 UNK         0.0194 
     72 H72        28.3245   -5.6941    1.3551 H         1 UNK         0.0906 
     73 H73        30.0720   -5.4833    1.2321 H         1 UNK         0.0906 
     74 H74        29.2874   -5.4487    2.8138 H         1 UNK         0.0906 
     75 H75        27.1523   -3.8342    0.8295 H         1 UNK         0.3140 
     76 H76        27.7200   -1.2869    1.8625 H         1 UNK         0.1085 
     77 H77        28.1717   -0.0054   -0.1777 H         1 UNK         0.0836 
     78 H78        29.4418   -1.1362    0.0778 H         1 UNK         0.0836 
     79 H79        30.3804   -2.5157   -1.4906 H         1 UNK         0.0731 
     80 H80        29.2306   -3.8230   -1.6255 H         1 UNK         0.0731 
     81 H81        31.8068   -2.0971   -3.3091 H         1 UNK         0.1312 
     82 H82        30.8861   -3.5582   -7.2373 H         1 UNK         0.1406 
     83 H83        28.1106   -4.1209   -4.0190 H         1 UNK         0.1631 
     84 H84        28.5857   -5.7205   -6.5177 H         1 UNK         0.0717 
     85 H85        28.7542   -4.4785   -7.7289 H         1 UNK         0.0717 
     86 H86        26.9149   -3.8460   -8.8720 H         1 UNK         0.0934 
     87 H87        25.2615   -3.9647   -8.3785 H         1 UNK         0.0934 
     88 H88        25.6835   -1.6912   -9.0562 H         1 UNK         0.0739 
     89 H89        24.6680   -2.2304   -6.5106 H         1 UNK         0.3093 
     90 H90        23.9180    1.0539   -5.4363 H         1 UNK         0.0818 
     91 H91        21.5546    0.2780   -5.4623 H         1 UNK         0.0819 
     92 H92        22.1030    0.7228   -7.0702 H         1 UNK         0.0819 
     93 H93        21.9602   -0.9720   -6.6377 H         1 UNK         0.0819 
     94 H94        24.2427   -0.3122   -3.7535 H         1 UNK         0.3041 
     95 H95        23.0990   -3.2789   -2.7156 H         1 UNK         0.0784 
     96 H96        24.8766   -4.5596   -3.8776 H         1 UNK         0.0793 
     97 H97        26.0464   -3.2920   -3.5374 H         1 UNK         0.0793 
     98 H98        25.3593   -4.2408   -2.2192 H         1 UNK         0.0793 
     99 H99        25.3621   -1.6447   -1.8572 H         1 UNK         0.3024 
    100 H100       24.1264    0.7784   -0.5184 H         1 UNK         0.1171 
    101 H101       23.6786    0.4404    1.9288 H         1 UNK         0.0786 
    102 H102       22.2487    0.1671    0.9506 H         1 UNK         0.0786 
    103 H103       23.1354   -1.2040    1.5974 H         1 UNK         0.0786 
    104 H104       26.1821    0.1975    0.0478 H         1 UNK         0.2977 
    105 H105       27.1627   -0.9281   -6.0080 H         1 UNK         0.3127 
    106 H106       29.8442   -0.5803   -6.7367 H         1 UNK         0.0770 
    107 H107       28.1057    0.9570   -4.7282 H         1 UNK         0.0814 
    108 H108       29.8576    1.0565   -4.8002 H         1 UNK         0.0814 
    109 H109       29.0910   -0.4678   -4.4019 H         1 UNK         0.0814 
    110 H110       27.0381    1.4906   -7.4494 H         1 UNK         0.2983 
    111 H111       28.6055    3.7817   -8.3165 H         1 UNK         0.0947 
    112 H112       26.4114    4.6219   -9.1245 H         1 UNK         0.0806 
    113 H113       26.2724    4.0345   -7.4751 H         1 UNK         0.0806 
    114 H114       25.6649    3.0613   -8.8135 H         1 UNK         0.0806 
    115 H115       27.1757    0.9214   -9.8621 H         1 UNK         0.3000 
    116 H116       27.7641    1.7342  -12.5897 H         1 UNK         0.0850 
    117 H117       27.0665   -0.5905  -13.1376 H         1 UNK         0.0810 
    118 H118       25.8910    0.1754  -12.0819 H         1 UNK         0.0810 
    119 H119       27.0225   -1.0106  -11.4324 H         1 UNK         0.0810 
    120 H120       29.2737   -0.4237  -10.1650 H         1 UNK         0.3040 
    121 H121       31.5087   -1.2186  -11.7666 H         1 UNK         0.0766 
    122 H122       31.1388   -1.1743   -8.7204 H         1 UNK         0.0812 
    123 H123       32.3704   -2.0815   -9.5880 H         1 UNK         0.0812 
    124 H124       30.6751   -2.4979   -9.7878 H         1 UNK         0.0812 
    125 H125       30.8728    1.6997  -10.0383 H         1 UNK         0.3205 
    126 H126       31.9422    3.5617   -9.5291 H         1 UNK         0.0754 
    127 H127       33.8908    4.3361  -10.8347 H         1 UNK         0.0769 
    128 H128       32.7012    3.6199  -11.9107 H         1 UNK         0.0769 
    129 H129       34.1573    2.7245  -11.4797 H         1 UNK         0.0769 
    130 H130       31.9721    1.8054   -7.6579 H         1 UNK         0.2981 
    131 H131       34.5334    0.9060   -6.7762 H         1 UNK         0.0541 
    132 H132       33.1470    4.0692   -6.3592 H         1 UNK         0.3459 
    133 H133       34.2130    4.5582   -5.0652 H         1 UNK         0.3459 
    134 H134       31.9629    0.0959   -6.2637 H         1 UNK         0.0612 
    135 H135       32.2480    0.9726   -4.7964 H         1 UNK         0.0612 
    136 H136       32.8087   -2.0808   -6.9256 H         1 UNK         0.0624 
    137 H137       33.5330   -3.2055   -5.8056 H         1 UNK         0.0624 
@<TRIPOS>BOND
     1    1    2 1    
     2    1   72 1    
     3    1   73 1    
     4    1   74 1    
     5    2    3 2    
     6    2    4 am   BACKBONE|DICT|INTERRES
     7    4    5 1    
     8    4   75 1    
     9    5    6 1    
    10    5   35 1    
    11    5   76 1    
    12    6    7 1    
    13    6   77 1    
    14    6   78 1    
    15    7    8 1    
    16    8    9 1    
    17    8   79 1    
    18    8   80 1    
    19    9   10 ar   
    20    9   14 ar   
    21   10   11 ar   
    22   10   81 1    
    23   11   12 ar   
    24   11   71 1    
    25   12   13 ar   
    26   12   82 1    
    27   13   14 ar   
    28   13   15 1    
    29   14   83 1    
    30   15   16 1    
    31   15   84 1    
    32   15   85 1    
    33   16   17 1    
    34   17   18 1    
    35   17   86 1    
    36   17   87 1    
    37   18   19 1    
    38   18   37 1    
    39   18   88 1    
    40   19   20 am   BACKBONE|DICT|INTERRES
    41   19   89 1    
    42   20   21 2    
    43   20   22 1    
    44   22   23 1    
    45   22   24 1    
    46   22   90 1    
    47   23   91 1    
    48   23   92 1    
    49   23   93 1    
    50   24   25 am   BACKBONE|DICT|INTERRES
    51   24   94 1    
    52   25   26 2    
    53   25   27 1    
    54   27   28 1    
    55   27   29 1    
    56   27   95 1    
    57   28   96 1    
    58   28   97 1    
    59   28   98 1    
    60   29   30 am   BACKBONE|DICT|INTERRES
    61   29   99 1    
    62   30   31 2    
    63   30   32 1    
    64   32   33 1    
    65   32   34 1    
    66   32  100 1    
    67   33  101 1    
    68   33  102 1    
    69   33  103 1    
    70   34   35 am   BACKBONE|DICT|INTERRES
    71   34  104 1    
    72   35   36 2    
    73   37   38 2    
    74   37   39 am   BACKBONE|DICT|INTERRES
    75   39   40 1    
    76   39  105 1    
    77   40   41 1    
    78   40   42 1    
    79   40  106 1    
    80   41  107 1    
    81   41  108 1    
    82   41  109 1    
    83   42   43 2    
    84   42   44 am   BACKBONE|DICT|INTERRES
    85   44   45 1    
    86   44  110 1    
    87   45   46 1    
    88   45   47 1    
    89   45  111 1    
    90   46  112 1    
    91   46  113 1    
    92   46  114 1    
    93   47   48 2    
    94   47   49 am   BACKBONE|DICT|INTERRES
    95   49   50 1    
    96   49  115 1    
    97   50   51 1    
    98   50   52 1    
    99   50  116 1    
   100   51  117 1    
   101   51  118 1    
   102   51  119 1    
   103   52   53 2    
   104   52   54 am   BACKBONE|DICT|INTERRES
   105   54   55 1    
   106   54  120 1    
   107   55   56 1    
   108   55   57 1    
   109   55  121 1    
   110   56  122 1    
   111   56  123 1    
   112   56  124 1    
   113   57   58 2    
   114   57   59 am   BACKBONE|DICT|INTERRES
   115   59   60 1    
   116   59  125 1    
   117   60   61 1    
   118   60   62 1    
   119   60  126 1    
   120   61  127 1    
   121   61  128 1    
   122   61  129 1    
   123   62   63 2    
   124   62   64 am   BACKBONE|DICT|INTERRES
   125   64   65 1    
   126   64  130 1    
   127   65   66 1    
   128   65   69 1    
   129   65  131 1    
   130   66   67 am   BACKBONE|DICT|INTERRES
   131   66   68 2    
   132   67  132 1    
   133   67  133 1    
   134   69   70 1    
   135   69  134 1    
   136   69  135 1    
   137   70   71 1    
   138   71  136 1    
   139   71  137 1    
@<TRIPOS>SUBSTRUCTURE
     1 UNK         1 GROUP             0       ****    0 ROOT    
