@<TRIPOS>MOLECULE
3R137
137   139    1
SMALL
USER_CHARGES


@<TRIPOS>ATOM
      1 CA         23.9430   -5.6895   -4.0913 C.3       0 UNK        -0.2020 
      2 C          24.8914   -5.0874   -3.0663 C.2       0 UNK         0.4855 
      3 O          24.4389   -4.5267   -2.0675 O.2       0 UNK        -0.5197 
      4 N          26.2047   -5.1881   -3.3127 N.am      1 UNK        -0.4892 
      5 CA         27.2819   -4.6342   -2.4834 C.3       1 UNK         0.0835 
      6 C6         28.6627   -5.0422   -3.0516 C.3       12 UNK        -0.0855 
      7 S7         30.0459   -4.7236   -1.9030 S.3       12 UNK        -0.2931 
      8 C8         31.4130   -4.4119   -3.0708 C.3       12 UNK         0.0378 
      9 C9         31.6819   -2.9271   -3.2949 C.ar      12 UNK        -0.0802 
     10 C10        32.9587   -2.4076   -3.0559 C.ar      12 UNK        -0.0944 
     11 C11        33.2370   -1.0594   -3.3026 C.ar      12 UNK        -0.0787 
     12 C12        32.2183   -0.2175   -3.7589 C.ar      12 UNK        -0.0862 
     13 C13        30.9394   -0.7233   -4.0037 C.ar      12 UNK        -0.0733 
     14 C14        30.6808   -2.0781   -3.7795 C.ar      12 UNK        -0.0832 
     15 C15        29.8430    0.1867   -4.5313 C.3       12 UNK         0.0240 
     16 S16        28.8675    0.8955   -3.1700 S.3       12 UNK        -0.2522 
     17 C17        27.7565    2.0882   -4.0010 C.3       12 UNK        -0.0967 
     18 CA         27.2177    1.6673   -5.3919 C.3       5 UNK         0.0660 
     19 N          26.5486    0.3604   -5.3627 N.am      5 UNK        -0.4015 
     20 C          26.1214   -0.3169   -6.4401 C.2       4 UNK         0.4946 
     21 O          26.2676    0.0845   -7.5939 O.2       4 UNK        -0.5353 
     22 CA         25.3533   -1.6266   -6.2012 C.3       4 UNK         0.0277 
     23 CB         26.2536   -2.8444   -6.4679 C.3       4 UNK        -0.1981 
     24 N          24.7792   -1.7037   -4.8538 N.am      4 UNK        -0.4209 
     25 C          23.6947   -1.0150   -4.4613 C.2       3 UNK         0.4942 
     26 O          23.0616   -0.2700   -5.2093 O.2       3 UNK        -0.5208 
     27 CA         23.2496   -1.1449   -2.9935 C.3       3 UNK         0.0250 
     28 CB         22.1039   -2.1604   -2.8607 C.3       3 UNK        -0.1990 
     29 N          24.3476   -1.5128   -2.0959 N.am      3 UNK        -0.4232 
     30 C          25.3019   -0.6554   -1.7005 C.2       2 UNK         0.4993 
     31 O          25.3025    0.5391   -1.9970 O.2       2 UNK        -0.5286 
     32 CA         26.4718   -1.2204   -0.8712 C.3       2 UNK         0.0209 
     33 CB         26.1975   -1.0496    0.6313 C.3       2 UNK        -0.1931 
     34 N          26.7820   -2.6266   -1.1519 N.am      2 UNK        -0.4546 
     35 C          27.1264   -3.1047   -2.3556 C.2       1 UNK         0.5154 
     36 O          27.2383   -2.4006   -3.3601 O.2       1 UNK        -0.5181 
     37 C          26.3421    2.7887   -5.9955 C.2       5 UNK         0.5014 
     38 O          26.8924    3.7878   -6.4592 O.2       5 UNK        -0.5248 
     39 N          25.0142    2.5946   -6.0495 N.am      6 UNK        -0.4434 
     40 CA         24.0740    3.4438   -6.7891 C.3       6 UNK         0.0363 
     41 CB         22.6374    3.0009   -6.4707 C.3       6 UNK        -0.1936 
     42 C          24.3120    3.4409   -8.3142 C.2       6 UNK         0.5081 
     43 O          23.9489    4.4113   -8.9787 O.2       6 UNK        -0.5248 
     44 N          24.9392    2.3766   -8.8347 N.am      7 UNK        -0.4718 
     45 CA         25.3982    2.2420  -10.2184 C.3       7 UNK         0.0273 
     46 CB         24.8646    0.9133  -10.7849 C.3       7 UNK        -0.1935 
     47 C          26.9367    2.3185  -10.2963 C.2       7 UNK         0.5018 
     48 O          27.5241    1.7897  -11.2420 O.2       7 UNK        -0.5186 
     49 N          27.5689    2.9486   -9.2932 N.am      8 UNK        -0.4240 
     50 CA         29.0086    3.1311   -9.0648 C.3       8 UNK         0.0235 
     51 CB         29.6839    3.8997  -10.2176 C.3       8 UNK        -0.2000 
     52 C          29.7693    1.8358   -8.7377 C.2       8 UNK         0.4941 
     53 O          30.5405    1.8251   -7.7786 O.2       8 UNK        -0.5273 
     54 N          29.5751    0.7836   -9.5438 N.am      9 UNK        -0.4262 
     55 CA         30.1487   -0.5717   -9.4715 C.3       9 UNK         0.0264 
     56 CB         29.7062   -1.2847   -8.1792 C.3       9 UNK        -0.1955 
     57 C          31.6797   -0.6748   -9.6362 C.2       9 UNK         0.5031 
     58 O          32.1587   -1.7371  -10.0366 O.2       9 UNK        -0.5390 
     59 N          32.4226    0.3901   -9.2990 N.am      10 UNK        -0.4204 
     60 CA         33.8885    0.5155   -9.3202 C.3       10 UNK         0.0237 
     61 CB         34.4115    0.5123  -10.7723 C.3       10 UNK        -0.1985 
     62 C          34.6018   -0.5221   -8.4271 C.2       10 UNK         0.4970 
     63 O          35.7316   -0.9161   -8.7215 O.2       10 UNK        -0.4914 
     64 N          33.9087   -0.9541   -7.3656 N.am      11 UNK        -0.4285 
     65 CA         34.2876   -2.0358   -6.4446 C.3       11 UNK         0.1007 
     66 C          34.3659   -3.4493   -7.0996 C.2       11 UNK         0.5703 
     67 N          33.7846   -3.6715   -8.2744 N.am      11 UNK        -0.7361 
     68 O          34.9326   -4.3741   -6.5218 O.2       11 UNK        -0.4986 
     69 C69        35.5256   -1.6993   -5.5582 C.3       12 UNK        -0.0947 
     70 S70        35.4127   -0.0802   -4.7157 S.3       12 UNK        -0.2240 
     71 C71        34.6481   -0.5203   -3.1198 C.3       12 UNK         0.0194 
     72 H72        23.4412   -4.8993   -4.6488 H         1 UNK         0.0906 
     73 H73        24.4654   -6.3286   -4.8029 H         1 UNK         0.0906 
     74 H74        23.1836   -6.2913   -3.5928 H         1 UNK         0.0906 
     75 H75        26.5062   -5.6482   -4.1599 H         1 UNK         0.3140 
     76 H76        27.1797   -5.0794   -1.4913 H         1 UNK         0.1085 
     77 H77        28.6712   -6.1138   -3.2581 H         1 UNK         0.0836 
     78 H78        28.8407   -4.5585   -4.0133 H         1 UNK         0.0836 
     79 H79        31.2139   -4.8935   -4.0291 H         1 UNK         0.0731 
     80 H80        32.3044   -4.8998   -2.6734 H         1 UNK         0.0731 
     81 H81        33.7474   -3.0595   -2.7055 H         1 UNK         0.1312 
     82 H82        32.4301    0.8261   -3.9483 H         1 UNK         0.1406 
     83 H83        29.6937   -2.4650   -3.9799 H         1 UNK         0.1631 
     84 H84        29.1876   -0.3840   -5.1891 H         1 UNK         0.0717 
     85 H85        30.2751    0.9895   -5.1307 H         1 UNK         0.0717 
     86 H86        26.9266    2.2898   -3.3207 H         1 UNK         0.0934 
     87 H87        28.3048    3.0289   -4.0848 H         1 UNK         0.0934 
     88 H88        28.0656    1.5710   -6.0722 H         1 UNK         0.0739 
     89 H89        26.4167   -0.0506   -4.4484 H         1 UNK         0.3093 
     90 H90        24.5322   -1.6570   -6.9209 H         1 UNK         0.0818 
     91 H91        26.5660   -2.8680   -7.5127 H         1 UNK         0.0819 
     92 H92        27.1615   -2.8256   -5.8657 H         1 UNK         0.0819 
     93 H93        25.7317   -3.7795   -6.2658 H         1 UNK         0.0819 
     94 H94        25.3137   -2.2235   -4.1676 H         1 UNK         0.3041 
     95 H95        22.8657   -0.1703   -2.6833 H         1 UNK         0.0784 
     96 H96        21.2483   -1.8617   -3.4680 H         1 UNK         0.0793 
     97 H97        22.4006   -3.1560   -3.1884 H         1 UNK         0.0793 
     98 H98        21.7579   -2.2362   -1.8297 H         1 UNK         0.0793 
     99 H99        24.4204   -2.4924   -1.8357 H         1 UNK         0.3024 
    100 H100       27.3571   -0.6347   -1.1267 H         1 UNK         0.1171 
    101 H101       27.0575   -1.3517    1.2292 H         1 UNK         0.0786 
    102 H102       25.9884   -0.0063    0.8730 H         1 UNK         0.0786 
    103 H103       25.3378   -1.6380    0.9545 H         1 UNK         0.0786 
    104 H104       26.6696   -3.2747   -0.3855 H         1 UNK         0.2977 
    105 H105       24.6329    1.7483   -5.6482 H         1 UNK         0.3127 
    106 H106       24.2040    4.4700   -6.4389 H         1 UNK         0.0770 
    107 H107       22.4495    1.9772   -6.7975 H         1 UNK         0.0814 
    108 H108       21.9112    3.6416   -6.9729 H         1 UNK         0.0814 
    109 H109       22.4312    3.0545   -5.4016 H         1 UNK         0.0814 
    110 H110       25.2335    1.6242   -8.2165 H         1 UNK         0.2983 
    111 H111       25.0091    3.0569  -10.8323 H         1 UNK         0.0947 
    112 H112       25.1268    0.7995  -11.8375 H         1 UNK         0.0806 
    113 H113       23.7779    0.8619  -10.7170 H         1 UNK         0.0806 
    114 H114       25.2751    0.0556  -10.2501 H         1 UNK         0.0806 
    115 H115       26.9886    3.3122   -8.5458 H         1 UNK         0.3000 
    116 H116       29.0798    3.7596   -8.1754 H         1 UNK         0.0850 
    117 H117       30.7263    4.1165   -9.9804 H         1 UNK         0.0810 
    118 H118       29.1890    4.8536  -10.4000 H         1 UNK         0.0810 
    119 H119       29.6771    3.3354  -11.1505 H         1 UNK         0.0810 
    120 H120       28.9270    0.9392  -10.3138 H         1 UNK         0.3040 
    121 H121       29.7147   -1.1146  -10.3126 H         1 UNK         0.0766 
    122 H122       30.1449   -0.8235   -7.2954 H         1 UNK         0.0812 
    123 H123       30.0153   -2.3308   -8.1841 H         1 UNK         0.0812 
    124 H124       28.6227   -1.2677   -8.0678 H         1 UNK         0.0812 
    125 H125       31.9158    1.1623   -8.8718 H         1 UNK         0.3205 
    126 H126       34.1170    1.4907   -8.8879 H         1 UNK         0.0754 
    127 H127       35.4776    0.7404  -10.8067 H         1 UNK         0.0769 
    128 H128       33.9023    1.2615  -11.3785 H         1 UNK         0.0769 
    129 H129       34.2708   -0.4580  -11.2500 H         1 UNK         0.0769 
    130 H130       32.9939   -0.5590   -7.2101 H         1 UNK         0.2981 
    131 H131       33.4310   -2.1247   -5.7807 H         1 UNK         0.0541 
    132 H132       33.3071   -2.9311   -8.7754 H         1 UNK         0.3459 
    133 H133       33.8356   -4.5933   -8.6774 H         1 UNK         0.3459 
    134 H134       36.4316   -1.6963   -6.1658 H         1 UNK         0.0612 
    135 H135       35.6751   -2.4704   -4.8006 H         1 UNK         0.0612 
    136 H136       35.2823   -1.2425   -2.6033 H         1 UNK         0.0624 
    137 H137       34.6138    0.3680   -2.4877 H         1 UNK         0.0624 
@<TRIPOS>BOND
     1    1    2 1    
     2    1   72 1    
     3    1   73 1    
     4    1   74 1    
     5    2    3 2    
     6    2    4 am   BACKBONE|DICT|INTERRES
     7    4    5 1    
     8    4   75 1    
     9    5    6 1    
    10    5   35 1    
    11    5   76 1    
    12    6    7 1    
    13    6   77 1    
    14    6   78 1    
    15    7    8 1    
    16    8    9 1    
    17    8   79 1    
    18    8   80 1    
    19    9   10 ar   
    20    9   14 ar   
    21   10   11 ar   
    22   10   81 1    
    23   11   12 ar   
    24   11   71 1    
    25   12   13 ar   
    26   12   82 1    
    27   13   14 ar   
    28   13   15 1    
    29   14   83 1    
    30   15   16 1    
    31   15   84 1    
    32   15   85 1    
    33   16   17 1    
    34   17   18 1    
    35   17   86 1    
    36   17   87 1    
    37   18   19 1    
    38   18   37 1    
    39   18   88 1    
    40   19   20 am   BACKBONE|DICT|INTERRES
    41   19   89 1    
    42   20   21 2    
    43   20   22 1    
    44   22   23 1    
    45   22   24 1    
    46   22   90 1    
    47   23   91 1    
    48   23   92 1    
    49   23   93 1    
    50   24   25 am   BACKBONE|DICT|INTERRES
    51   24   94 1    
    52   25   26 2    
    53   25   27 1    
    54   27   28 1    
    55   27   29 1    
    56   27   95 1    
    57   28   96 1    
    58   28   97 1    
    59   28   98 1    
    60   29   30 am   BACKBONE|DICT|INTERRES
    61   29   99 1    
    62   30   31 2    
    63   30   32 1    
    64   32   33 1    
    65   32   34 1    
    66   32  100 1    
    67   33  101 1    
    68   33  102 1    
    69   33  103 1    
    70   34   35 am   BACKBONE|DICT|INTERRES
    71   34  104 1    
    72   35   36 2    
    73   37   38 2    
    74   37   39 am   BACKBONE|DICT|INTERRES
    75   39   40 1    
    76   39  105 1    
    77   40   41 1    
    78   40   42 1    
    79   40  106 1    
    80   41  107 1    
    81   41  108 1    
    82   41  109 1    
    83   42   43 2    
    84   42   44 am   BACKBONE|DICT|INTERRES
    85   44   45 1    
    86   44  110 1    
    87   45   46 1    
    88   45   47 1    
    89   45  111 1    
    90   46  112 1    
    91   46  113 1    
    92   46  114 1    
    93   47   48 2    
    94   47   49 am   BACKBONE|DICT|INTERRES
    95   49   50 1    
    96   49  115 1    
    97   50   51 1    
    98   50   52 1    
    99   50  116 1    
   100   51  117 1    
   101   51  118 1    
   102   51  119 1    
   103   52   53 2    
   104   52   54 am   BACKBONE|DICT|INTERRES
   105   54   55 1    
   106   54  120 1    
   107   55   56 1    
   108   55   57 1    
   109   55  121 1    
   110   56  122 1    
   111   56  123 1    
   112   56  124 1    
   113   57   58 2    
   114   57   59 am   BACKBONE|DICT|INTERRES
   115   59   60 1    
   116   59  125 1    
   117   60   61 1    
   118   60   62 1    
   119   60  126 1    
   120   61  127 1    
   121   61  128 1    
   122   61  129 1    
   123   62   63 2    
   124   62   64 am   BACKBONE|DICT|INTERRES
   125   64   65 1    
   126   64  130 1    
   127   65   66 1    
   128   65   69 1    
   129   65  131 1    
   130   66   67 am   BACKBONE|DICT|INTERRES
   131   66   68 2    
   132   67  132 1    
   133   67  133 1    
   134   69   70 1    
   135   69  134 1    
   136   69  135 1    
   137   70   71 1    
   138   71  136 1    
   139   71  137 1    
@<TRIPOS>SUBSTRUCTURE
     1 UNK         1 GROUP             0       ****    0 ROOT    
