@<TRIPOS>MOLECULE
3R137
137   139    1
SMALL
USER_CHARGES


@<TRIPOS>ATOM
      1 CA         25.8754   -6.4262   -4.9518 C.3       0 UNK        -0.2020 
      2 C          26.1513   -5.6100   -3.6985 C.2       0 UNK         0.4855 
      3 O          25.2133   -5.1922   -3.0193 O.2       0 UNK        -0.5197 
      4 N          27.4347   -5.3700   -3.3996 N.am      1 UNK        -0.4892 
      5 CA         27.9402   -4.5993   -2.2558 C.3       1 UNK         0.0835 
      6 C6         29.4916   -4.6371   -2.2238 C.3       12 UNK        -0.0855 
      7 S7         30.2089   -4.6982   -0.5459 S.3       12 UNK        -0.2931 
      8 C8         30.0638   -2.9814    0.0691 C.3       12 UNK         0.0378 
      9 C9         30.6701   -1.8831   -0.8072 C.ar      12 UNK        -0.0802 
     10 C10        31.6731   -2.1286   -1.7548 C.ar      12 UNK        -0.0944 
     11 C11        32.1505   -1.0977   -2.5693 C.ar      12 UNK        -0.0787 
     12 C12        31.6691    0.2014   -2.3932 C.ar      12 UNK        -0.0862 
     13 C13        30.6878    0.4676   -1.4354 C.ar      12 UNK        -0.0733 
     14 C14        30.1948   -0.5775   -0.6491 C.ar      12 UNK        -0.0832 
     15 C15        30.1277    1.8747   -1.2699 C.3       12 UNK         0.0240 
     16 S16        29.3928    2.5353   -2.8037 S.3       12 UNK        -0.2522 
     17 C17        28.1972    1.2374   -3.2742 C.3       12 UNK        -0.0967 
     18 CA         28.1792    1.0158   -4.8087 C.3       5 UNK         0.0660 
     19 N          27.8976   -0.3777   -5.1623 N.am      5 UNK        -0.4015 
     20 C          27.9235   -0.8873   -6.4022 C.2       4 UNK         0.4946 
     21 O          28.2832   -0.2615   -7.3995 O.2       4 UNK        -0.5353 
     22 CA         27.4129   -2.3256   -6.5685 C.3       4 UNK         0.0277 
     23 CB         28.5246   -3.3485   -6.2746 C.3       4 UNK        -0.1981 
     24 N          26.2435   -2.5720   -5.7210 N.am      4 UNK        -0.4209 
     25 C          25.0150   -2.1003   -5.9885 C.2       3 UNK         0.4942 
     26 O          24.7214   -1.5219   -7.0345 O.2       3 UNK        -0.5208 
     27 CA         23.9355   -2.2665   -4.9032 C.3       3 UNK         0.0250 
     28 CB         23.0632   -3.5010   -5.1793 C.3       3 UNK        -0.1990 
     29 N          24.4910   -2.3411   -3.5487 N.am      3 UNK        -0.4232 
     30 C          25.0058   -1.2884   -2.8946 C.2       2 UNK         0.4993 
     31 O          25.0328   -0.1479   -3.3572 O.2       2 UNK        -0.5286 
     32 CA         25.6679   -1.5624   -1.5303 C.3       2 UNK         0.0209 
     33 CB         24.6259   -1.5149   -0.4025 C.3       2 UNK        -0.1931 
     34 N          26.3896   -2.8401   -1.4828 N.am      2 UNK        -0.4546 
     35 C          27.4052   -3.1518   -2.2992 C.2       1 UNK         0.5154 
     36 O          27.8590   -2.3622   -3.1285 O.2       1 UNK        -0.5181 
     37 C          27.2036    1.9929   -5.4941 C.2       5 UNK         0.5014 
     38 O          27.6440    2.9928   -6.0611 O.2       5 UNK        -0.5248 
     39 N          25.9020    1.6646   -5.4630 N.am      6 UNK        -0.4434 
     40 CA         24.8046    2.4463   -6.0465 C.3       6 UNK         0.0363 
     41 CB         23.4676    1.7612   -5.7223 C.3       6 UNK        -0.1936 
     42 C          24.9159    2.7051   -7.5618 C.2       6 UNK         0.5081 
     43 O          24.3305    3.6747   -8.0446 O.2       6 UNK        -0.5248 
     44 N          25.6724    1.8662   -8.2839 N.am      7 UNK        -0.4718 
     45 CA         26.0015    2.0595   -9.7000 C.3       7 UNK         0.0273 
     46 CB         26.4921    0.7235  -10.2829 C.3       7 UNK        -0.1935 
     47 C          27.0447    3.1710   -9.9431 C.2       7 UNK         0.5018 
     48 O          27.2052    3.5914  -11.0892 O.2       7 UNK        -0.5186 
     49 N          27.7364    3.6044   -8.8772 N.am      8 UNK        -0.4240 
     50 CA         28.8431    4.5646   -8.8295 C.3       8 UNK         0.0235 
     51 CB         28.2934    5.9956   -9.0102 C.3       8 UNK        -0.2000 
     52 C          30.0074    4.2430   -9.7981 C.2       8 UNK         0.4941 
     53 O          30.3238    5.0754  -10.6485 O.2       8 UNK        -0.5273 
     54 N          30.6654    3.0782   -9.7108 N.am      9 UNK        -0.4262 
     55 CA         30.4433    1.9271   -8.8381 C.3       9 UNK         0.0264 
     56 CB         31.2285    2.0811   -7.5240 C.3       9 UNK        -0.1955 
     57 C          30.8963    0.6886   -9.6153 C.2       9 UNK         0.5031 
     58 O          31.8581    0.7727  -10.3840 O.2       9 UNK        -0.5390 
     59 N          30.2121   -0.4386   -9.3953 N.am      10 UNK        -0.4204 
     60 CA         30.4726   -1.7144  -10.0721 C.3       10 UNK         0.0237 
     61 CB         29.1689   -2.5281  -10.1387 C.3       10 UNK        -0.1985 
     62 C          31.6170   -2.5295   -9.4369 C.2       10 UNK         0.4970 
     63 O          31.8997   -3.6302   -9.9117 O.2       10 UNK        -0.4914 
     64 N          32.2537   -1.9910   -8.3882 N.am      11 UNK        -0.4285 
     65 CA         33.4075   -2.5809   -7.6900 C.3       11 UNK         0.1007 
     66 C          34.7004   -2.7011   -8.5504 C.2       11 UNK         0.5703 
     67 N          34.8373   -1.9712   -9.6519 N.am      11 UNK        -0.7361 
     68 O          35.5937   -3.4730   -8.2098 O.2       11 UNK        -0.4986 
     69 C69        33.7175   -1.8298   -6.3685 C.3       12 UNK        -0.0947 
     70 S70        32.2951   -1.7493   -5.2332 S.3       12 UNK        -0.2240 
     71 C71        33.1543   -1.3906   -3.6703 C.3       12 UNK         0.0194 
     72 H72        25.0574   -7.1241   -4.7748 H         1 UNK         0.0906 
     73 H73        25.5938   -5.7707   -5.7753 H         1 UNK         0.0906 
     74 H74        26.7477   -7.0032   -5.2584 H         1 UNK         0.0906 
     75 H75        28.1474   -5.7384   -4.0132 H         1 UNK         0.3140 
     76 H76        27.5574   -5.0862   -1.3562 H         1 UNK         0.1085 
     77 H77        29.9371   -3.8364   -2.8151 H         1 UNK         0.0836 
     78 H78        29.8457   -5.5509   -2.7038 H         1 UNK         0.0836 
     79 H79        30.5390   -2.9331    1.0497 H         1 UNK         0.0731 
     80 H80        29.0059   -2.7740    0.2364 H         1 UNK         0.0731 
     81 H81        32.0607   -3.1280   -1.8921 H         1 UNK         0.1312 
     82 H82        32.0327    1.0007   -3.0247 H         1 UNK         0.1406 
     83 H83        29.4243   -0.3762    0.0830 H         1 UNK         0.1631 
     84 H84        30.9297    2.5403   -0.9481 H         1 UNK         0.0717 
     85 H85        29.3713    1.9030   -0.4841 H         1 UNK         0.0717 
     86 H86        28.4660    0.3072   -2.7754 H         1 UNK         0.0934 
     87 H87        27.2124    1.4951   -2.8788 H         1 UNK         0.0934 
     88 H88        29.1763    1.2195   -5.2053 H         1 UNK         0.0739 
     89 H89        27.6893   -1.0085   -4.3919 H         1 UNK         0.3093 
     90 H90        27.1081   -2.4480   -7.6098 H         1 UNK         0.0818 
     91 H91        28.8747   -3.2979   -5.2449 H         1 UNK         0.0819 
     92 H92        28.1863   -4.3666   -6.4660 H         1 UNK         0.0819 
     93 H93        29.3963   -3.1724   -6.9058 H         1 UNK         0.0819 
     94 H94        26.4193   -2.9791   -4.8134 H         1 UNK         0.3041 
     95 H95        23.2890   -1.3878   -4.9527 H         1 UNK         0.0784 
     96 H96        22.6063   -3.4411   -6.1681 H         1 UNK         0.0793 
     97 H97        23.6386   -4.4250   -5.1434 H         1 UNK         0.0793 
     98 H98        22.2536   -3.5835   -4.4540 H         1 UNK         0.0793 
     99 H99        24.5544   -3.2636   -3.1274 H         1 UNK         0.3024 
    100 H100       26.3950   -0.7654   -1.3590 H         1 UNK         0.1171 
    101 H101       25.0957   -1.6133    0.5764 H         1 UNK         0.0786 
    102 H102       24.0889   -0.5652   -0.4081 H         1 UNK         0.0786 
    103 H103       23.8850   -2.3093   -0.5019 H         1 UNK         0.0786 
    104 H104       26.0207   -3.5506   -0.8663 H         1 UNK         0.2977 
    105 H105       25.6277    0.8598   -4.9045 H         1 UNK         0.3127 
    106 H106       24.8143    3.4218   -5.5563 H         1 UNK         0.0770 
    107 H107       23.4009    0.7757   -6.1836 H         1 UNK         0.0814 
    108 H108       22.6269    2.3503   -6.0914 H         1 UNK         0.0814 
    109 H109       23.3299    1.6413   -4.6475 H         1 UNK         0.0814 
    110 H110       26.1142    1.0872   -7.8134 H         1 UNK         0.2983 
    111 H111       25.0906    2.3485  -10.2290 H         1 UNK         0.0947 
    112 H112       26.6752    0.8087  -11.3548 H         1 UNK         0.0806 
    113 H113       25.7552   -0.0677  -10.1419 H         1 UNK         0.0806 
    114 H114       27.4237    0.3993   -9.8207 H         1 UNK         0.0806 
    115 H115       27.5110    3.1965   -7.9733 H         1 UNK         0.3000 
    116 H116       29.2578    4.5033   -7.8228 H         1 UNK         0.0850 
    117 H117       29.0848    6.7374   -8.8963 H         1 UNK         0.0810 
    118 H118       27.5292    6.2217   -8.2665 H         1 UNK         0.0810 
    119 H119       27.8516    6.1370   -9.9974 H         1 UNK         0.0810 
    120 H120       31.3905    2.8937  -10.3938 H         1 UNK         0.3040 
    121 H121       29.3899    1.7979   -8.6073 H         1 UNK         0.0766 
    122 H122       31.1042    1.2018   -6.8902 H         1 UNK         0.0812 
    123 H123       30.8830    2.9397   -6.9489 H         1 UNK         0.0812 
    124 H124       32.2969    2.2061   -7.7048 H         1 UNK         0.0812 
    125 H125       29.4578   -0.4242   -8.7053 H         1 UNK         0.3205 
    126 H126       30.7764   -1.5029  -11.0996 H         1 UNK         0.0754 
    127 H127       29.3031   -3.4347  -10.7302 H         1 UNK         0.0769 
    128 H128       28.3660   -1.9567  -10.6049 H         1 UNK         0.0769 
    129 H129       28.8330   -2.8347   -9.1509 H         1 UNK         0.0769 
    130 H130       31.9519   -1.0894   -8.0544 H         1 UNK         0.2981 
    131 H131       33.1249   -3.6025   -7.4286 H         1 UNK         0.0541 
    132 H132       35.6774   -2.0599  -10.2014 H         1 UNK         0.3459 
    133 H133       34.1127   -1.3306   -9.9357 H         1 UNK         0.3459 
    134 H134       34.5415   -2.3179   -5.8441 H         1 UNK         0.0612 
    135 H135       34.0450   -0.8091   -6.5754 H         1 UNK         0.0612 
    136 H136       33.8195   -0.5365   -3.8072 H         1 UNK         0.0624 
    137 H137       33.7841   -2.2386   -3.3969 H         1 UNK         0.0624 
@<TRIPOS>BOND
     1    1    2 1    
     2    1   72 1    
     3    1   73 1    
     4    1   74 1    
     5    2    3 2    
     6    2    4 am   BACKBONE|DICT|INTERRES
     7    4    5 1    
     8    4   75 1    
     9    5    6 1    
    10    5   35 1    
    11    5   76 1    
    12    6    7 1    
    13    6   77 1    
    14    6   78 1    
    15    7    8 1    
    16    8    9 1    
    17    8   79 1    
    18    8   80 1    
    19    9   10 ar   
    20    9   14 ar   
    21   10   11 ar   
    22   10   81 1    
    23   11   12 ar   
    24   11   71 1    
    25   12   13 ar   
    26   12   82 1    
    27   13   14 ar   
    28   13   15 1    
    29   14   83 1    
    30   15   16 1    
    31   15   84 1    
    32   15   85 1    
    33   16   17 1    
    34   17   18 1    
    35   17   86 1    
    36   17   87 1    
    37   18   19 1    
    38   18   37 1    
    39   18   88 1    
    40   19   20 am   BACKBONE|DICT|INTERRES
    41   19   89 1    
    42   20   21 2    
    43   20   22 1    
    44   22   23 1    
    45   22   24 1    
    46   22   90 1    
    47   23   91 1    
    48   23   92 1    
    49   23   93 1    
    50   24   25 am   BACKBONE|DICT|INTERRES
    51   24   94 1    
    52   25   26 2    
    53   25   27 1    
    54   27   28 1    
    55   27   29 1    
    56   27   95 1    
    57   28   96 1    
    58   28   97 1    
    59   28   98 1    
    60   29   30 am   BACKBONE|DICT|INTERRES
    61   29   99 1    
    62   30   31 2    
    63   30   32 1    
    64   32   33 1    
    65   32   34 1    
    66   32  100 1    
    67   33  101 1    
    68   33  102 1    
    69   33  103 1    
    70   34   35 am   BACKBONE|DICT|INTERRES
    71   34  104 1    
    72   35   36 2    
    73   37   38 2    
    74   37   39 am   BACKBONE|DICT|INTERRES
    75   39   40 1    
    76   39  105 1    
    77   40   41 1    
    78   40   42 1    
    79   40  106 1    
    80   41  107 1    
    81   41  108 1    
    82   41  109 1    
    83   42   43 2    
    84   42   44 am   BACKBONE|DICT|INTERRES
    85   44   45 1    
    86   44  110 1    
    87   45   46 1    
    88   45   47 1    
    89   45  111 1    
    90   46  112 1    
    91   46  113 1    
    92   46  114 1    
    93   47   48 2    
    94   47   49 am   BACKBONE|DICT|INTERRES
    95   49   50 1    
    96   49  115 1    
    97   50   51 1    
    98   50   52 1    
    99   50  116 1    
   100   51  117 1    
   101   51  118 1    
   102   51  119 1    
   103   52   53 2    
   104   52   54 am   BACKBONE|DICT|INTERRES
   105   54   55 1    
   106   54  120 1    
   107   55   56 1    
   108   55   57 1    
   109   55  121 1    
   110   56  122 1    
   111   56  123 1    
   112   56  124 1    
   113   57   58 2    
   114   57   59 am   BACKBONE|DICT|INTERRES
   115   59   60 1    
   116   59  125 1    
   117   60   61 1    
   118   60   62 1    
   119   60  126 1    
   120   61  127 1    
   121   61  128 1    
   122   61  129 1    
   123   62   63 2    
   124   62   64 am   BACKBONE|DICT|INTERRES
   125   64   65 1    
   126   64  130 1    
   127   65   66 1    
   128   65   69 1    
   129   65  131 1    
   130   66   67 am   BACKBONE|DICT|INTERRES
   131   66   68 2    
   132   67  132 1    
   133   67  133 1    
   134   69   70 1    
   135   69  134 1    
   136   69  135 1    
   137   70   71 1    
   138   71  136 1    
   139   71  137 1    
@<TRIPOS>SUBSTRUCTURE
     1 UNK         1 GROUP             0       ****    0 ROOT    
