@<TRIPOS>MOLECULE
3R137
137   139    1
SMALL
USER_CHARGES


@<TRIPOS>ATOM
      1 CA         24.3538   -5.5371   -3.4654 C.3       0 UNK        -0.2020 
      2 C          24.8481   -4.5010   -2.4666 C.2       0 UNK         0.4855 
      3 O          24.0387   -3.8742   -1.7837 O.2       0 UNK        -0.5197 
      4 N          26.1717   -4.3282   -2.3689 N.am      1 UNK        -0.4892 
      5 CA         26.8394   -3.3680   -1.4856 C.3       1 UNK         0.0835 
      6 C6         28.3772   -3.5665   -1.4586 C.3       12 UNK        -0.0855 
      7 S7         28.9021   -5.3046   -1.2206 S.3       12 UNK        -0.2931 
      8 C8         30.6795   -5.2549   -1.6525 C.3       12 UNK         0.0378 
      9 C9         30.9399   -4.5119   -2.9563 C.ar      12 UNK        -0.0802 
     10 C10        31.6140   -3.2863   -2.9411 C.ar      12 UNK        -0.0944 
     11 C11        31.7632   -2.5347   -4.1101 C.ar      12 UNK        -0.0787 
     12 C12        31.2137   -3.0266   -5.3004 C.ar      12 UNK        -0.0862 
     13 C13        30.5477   -4.2543   -5.3356 C.ar      12 UNK        -0.0733 
     14 C14        30.4397   -5.0085   -4.1634 C.ar      12 UNK        -0.0832 
     15 C15        29.9284   -4.7329   -6.6445 C.3       12 UNK         0.0240 
     16 S16        28.1886   -5.2704   -6.5054 S.3       12 UNK        -0.2522 
     17 C17        27.3894   -3.9462   -5.5372 C.3       12 UNK        -0.0967 
     18 CA         26.8734   -2.7544   -6.3797 C.3       5 UNK         0.0660 
     19 N          25.6466   -2.1933   -5.8121 N.am      5 UNK        -0.4015 
     20 C          24.4933   -2.0595   -6.4766 C.2       4 UNK         0.4946 
     21 O          24.2942   -2.4957   -7.6112 O.2       4 UNK        -0.5353 
     22 CA         23.3636   -1.2890   -5.7714 C.3       4 UNK         0.0277 
     23 CB         22.4965   -2.2420   -4.9341 C.3       4 UNK        -0.1981 
     24 N          23.7977   -0.1682   -4.9304 N.am      4 UNK        -0.4209 
     25 C          24.5635    0.8635   -5.3081 C.2       3 UNK         0.4942 
     26 O          25.1424    0.9306   -6.3912 O.2       3 UNK        -0.5208 
     27 CA         24.7334    2.0146   -4.3012 C.3       3 UNK         0.0250 
     28 CB         23.4009    2.7418   -4.0308 C.3       3 UNK        -0.1990 
     29 N          25.4013    1.6087   -3.0601 N.am      3 UNK        -0.4232 
     30 C          24.9806    0.7356   -2.1349 C.2       2 UNK         0.4993 
     31 O          23.8685    0.2015   -2.1293 O.2       2 UNK        -0.5286 
     32 CA         26.0008    0.3786   -1.0418 C.3       2 UNK         0.0209 
     33 CB         25.5593    0.9501    0.3156 C.3       2 UNK        -0.1931 
     34 N          26.2224   -1.0655   -0.9111 N.am      2 UNK        -0.4546 
     35 C          26.5252   -1.9159   -1.9036 C.2       1 UNK         0.5154 
     36 O          26.6269   -1.5946   -3.0953 O.2       1 UNK        -0.5181 
     37 C          27.9290   -1.6422   -6.5008 C.2       5 UNK         0.5014 
     38 O          28.5718   -1.5276   -7.5450 O.2       5 UNK        -0.5248 
     39 N          28.0840   -0.8328   -5.4413 N.am      6 UNK        -0.4434 
     40 CA         29.1303    0.1829   -5.3145 C.3       6 UNK         0.0363 
     41 CB         29.0913    0.7930   -3.9062 C.3       6 UNK        -0.1936 
     42 C          29.1109    1.2828   -6.3872 C.2       6 UNK         0.5081 
     43 O          30.1798    1.6538   -6.8721 O.2       6 UNK        -0.5248 
     44 N          27.9223    1.7794   -6.7595 N.am      7 UNK        -0.4718 
     45 CA         27.7796    2.7964   -7.8085 C.3       7 UNK         0.0273 
     46 CB         26.5200    3.6441   -7.5675 C.3       7 UNK        -0.1935 
     47 C          27.7596    2.1766   -9.2139 C.2       7 UNK         0.5018 
     48 O          28.1361    2.8556  -10.1686 O.2       7 UNK        -0.5186 
     49 N          27.3514    0.9029   -9.3183 N.am      8 UNK        -0.4240 
     50 CA         27.3758    0.1233  -10.5582 C.3       8 UNK         0.0235 
     51 CB         26.5281   -1.1494  -10.3944 C.3       8 UNK        -0.2000 
     52 C          28.8123   -0.2143  -10.9899 C.2       8 UNK         0.4941 
     53 O          29.1498   -0.0408  -12.1614 O.2       8 UNK        -0.5273 
     54 N          29.6392   -0.6530  -10.0302 N.am      9 UNK        -0.4262 
     55 CA         31.0744   -0.8873  -10.2145 C.3       9 UNK         0.0264 
     56 CB         31.5767   -1.8037   -9.0914 C.3       9 UNK        -0.1955 
     57 C          31.9036    0.4095  -10.2392 C.2       9 UNK         0.5031 
     58 O          33.0200    0.3889  -10.7590 O.2       9 UNK        -0.5390 
     59 N          31.3519    1.4924   -9.6712 N.am      10 UNK        -0.4204 
     60 CA         31.9521    2.8157   -9.4785 C.3       10 UNK         0.0237 
     61 CB         32.2610    3.4969  -10.8292 C.3       10 UNK        -0.1985 
     62 C          33.1606    2.7548   -8.5268 C.2       10 UNK         0.4970 
     63 O          34.2678    3.1492   -8.8988 O.2       10 UNK        -0.4914 
     64 N          32.9150    2.2510   -7.3104 N.am      11 UNK        -0.4285 
     65 CA         33.9061    2.1389   -6.2261 C.3       11 UNK         0.1007 
     66 C          34.4002    3.5000   -5.6524 C.2       11 UNK         0.5703 
     67 N          33.7005    4.6084   -5.8672 N.am      11 UNK        -0.7361 
     68 O          35.4420    3.5491   -5.0026 O.2       11 UNK        -0.4986 
     69 C69        33.4041    1.2269   -5.0759 C.3       12 UNK        -0.0947 
     70 S70        33.0347   -0.4746   -5.6084 S.3       12 UNK        -0.2240 
     71 C71        32.4612   -1.1754   -4.0211 C.3       12 UNK         0.0194 
     72 H72        25.1613   -6.1758   -3.8229 H         1 UNK         0.0906 
     73 H73        23.6015   -6.1760   -3.0034 H         1 UNK         0.0906 
     74 H74        23.9010   -5.0450   -4.3257 H         1 UNK         0.0906 
     75 H75        26.7955   -4.9028   -2.9162 H         1 UNK         0.3140 
     76 H76        26.4539   -3.5375   -0.4778 H         1 UNK         0.1085 
     77 H77        28.8010   -3.1964   -2.3927 H         1 UNK         0.0836 
     78 H78        28.8251   -2.9636   -0.6663 H         1 UNK         0.0836 
     79 H79        31.2267   -4.7932   -0.8291 H         1 UNK         0.0731 
     80 H80        31.0555   -6.2755   -1.7361 H         1 UNK         0.0731 
     81 H81        31.9955   -2.8972   -2.0067 H         1 UNK         0.1312 
     82 H82        31.2800   -2.4471   -6.2068 H         1 UNK         0.1406 
     83 H83        29.9098   -5.9515   -4.1766 H         1 UNK         0.1631 
     84 H84        30.5223   -5.5606   -7.0338 H         1 UNK         0.0717 
     85 H85        29.9702   -3.9461   -7.3974 H         1 UNK         0.0717 
     86 H86        26.5352   -4.4385   -5.0757 H         1 UNK         0.0934 
     87 H87        28.0157   -3.6266   -4.7035 H         1 UNK         0.0934 
     88 H88        26.6758   -3.1117   -7.3925 H         1 UNK         0.0739 
     89 H89        25.7167   -1.8177   -4.8718 H         1 UNK         0.3093 
     90 H90        22.7357   -0.8653   -6.5577 H         1 UNK         0.0818 
     91 H91        21.5940   -1.7451   -4.5779 H         1 UNK         0.0819 
     92 H92        22.1792   -3.1060   -5.5198 H         1 UNK         0.0819 
     93 H93        23.0362   -2.6137   -4.0632 H         1 UNK         0.0819 
     94 H94        23.4663   -0.1563   -3.9685 H         1 UNK         0.3041 
     95 H95        25.4012    2.7394   -4.7690 H         1 UNK         0.0784 
     96 H96        22.9592    3.0995   -4.9619 H         1 UNK         0.0793 
     97 H97        22.6641    2.0971   -3.5513 H         1 UNK         0.0793 
     98 H98        23.5496    3.6105   -3.3895 H         1 UNK         0.0793 
     99 H99        26.3266    1.9957   -2.9426 H         1 UNK         0.3024 
    100 H100       26.9645    0.8227   -1.2998 H         1 UNK         0.1171 
    101 H101       25.4048    2.0284    0.2546 H         1 UNK         0.0786 
    102 H102       26.3108    0.7758    1.0859 H         1 UNK         0.0786 
    103 H103       24.6217    0.5060    0.6530 H         1 UNK         0.0786 
    104 H104       26.1448   -1.4352    0.0252 H         1 UNK         0.2977 
    105 H105       27.5385   -1.0201   -4.6033 H         1 UNK         0.3127 
    106 H106       30.0802   -0.3386   -5.4261 H         1 UNK         0.0770 
    107 H107       28.1591    1.3257   -3.7267 H         1 UNK         0.0814 
    108 H108       29.9064    1.5049   -3.7681 H         1 UNK         0.0814 
    109 H109       29.1970    0.0266   -3.1379 H         1 UNK         0.0814 
    110 H110       27.0640    1.3940   -6.3773 H         1 UNK         0.2983 
    111 H111       28.6369    3.4723   -7.7638 H         1 UNK         0.0947 
    112 H112       26.4776    4.4763   -8.2713 H         1 UNK         0.0806 
    113 H113       26.5115    4.0704   -6.5647 H         1 UNK         0.0806 
    114 H114       25.6047    3.0684   -7.7017 H         1 UNK         0.0806 
    115 H115       27.0712    0.4207   -8.4760 H         1 UNK         0.3000 
    116 H116       26.9246    0.7301  -11.3465 H         1 UNK         0.0850 
    117 H117       26.4910   -1.7129  -11.3276 H         1 UNK         0.0810 
    118 H118       25.5005   -0.9103  -10.1194 H         1 UNK         0.0810 
    119 H119       26.9296   -1.8151   -9.6306 H         1 UNK         0.0810 
    120 H120       29.2587   -0.8436   -9.1033 H         1 UNK         0.3040 
    121 H121       31.2259   -1.3972  -11.1683 H         1 UNK         0.0766 
    122 H122       32.6419   -2.0135   -9.1981 H         1 UNK         0.0812 
    123 H123       31.0541   -2.7592   -9.0975 H         1 UNK         0.0812 
    124 H124       31.4307   -1.3375   -8.1176 H         1 UNK         0.0812 
    125 H125       30.4563    1.3625   -9.2212 H         1 UNK         0.3205 
    126 H126       31.1956    3.4212   -8.9768 H         1 UNK         0.0754 
    127 H127       32.6059    4.5204  -10.6774 H         1 UNK         0.0769 
    128 H128       31.3723    3.5438  -11.4589 H         1 UNK         0.0769 
    129 H129       33.0389    2.9730  -11.3852 H         1 UNK         0.0769 
    130 H130       31.9666    1.9544   -7.0869 H         1 UNK         0.2981 
    131 H131       34.7885    1.6624   -6.6574 H         1 UNK         0.0541 
    132 H132       34.0339    5.4829   -5.4934 H         1 UNK         0.3459 
    133 H133       32.8419    4.5770   -6.3922 H         1 UNK         0.3459 
    134 H134       32.5050    1.6520   -4.6256 H         1 UNK         0.0612 
    135 H135       34.1499    1.1648   -4.2809 H         1 UNK         0.0612 
    136 H136       33.3237   -1.2532   -3.3576 H         1 UNK         0.0624 
    137 H137       31.7721   -0.4727   -3.5522 H         1 UNK         0.0624 
@<TRIPOS>BOND
     1    1    2 1    
     2    1   72 1    
     3    1   73 1    
     4    1   74 1    
     5    2    3 2    
     6    2    4 am   BACKBONE|DICT|INTERRES
     7    4    5 1    
     8    4   75 1    
     9    5    6 1    
    10    5   35 1    
    11    5   76 1    
    12    6    7 1    
    13    6   77 1    
    14    6   78 1    
    15    7    8 1    
    16    8    9 1    
    17    8   79 1    
    18    8   80 1    
    19    9   10 ar   
    20    9   14 ar   
    21   10   11 ar   
    22   10   81 1    
    23   11   12 ar   
    24   11   71 1    
    25   12   13 ar   
    26   12   82 1    
    27   13   14 ar   
    28   13   15 1    
    29   14   83 1    
    30   15   16 1    
    31   15   84 1    
    32   15   85 1    
    33   16   17 1    
    34   17   18 1    
    35   17   86 1    
    36   17   87 1    
    37   18   19 1    
    38   18   37 1    
    39   18   88 1    
    40   19   20 am   BACKBONE|DICT|INTERRES
    41   19   89 1    
    42   20   21 2    
    43   20   22 1    
    44   22   23 1    
    45   22   24 1    
    46   22   90 1    
    47   23   91 1    
    48   23   92 1    
    49   23   93 1    
    50   24   25 am   BACKBONE|DICT|INTERRES
    51   24   94 1    
    52   25   26 2    
    53   25   27 1    
    54   27   28 1    
    55   27   29 1    
    56   27   95 1    
    57   28   96 1    
    58   28   97 1    
    59   28   98 1    
    60   29   30 am   BACKBONE|DICT|INTERRES
    61   29   99 1    
    62   30   31 2    
    63   30   32 1    
    64   32   33 1    
    65   32   34 1    
    66   32  100 1    
    67   33  101 1    
    68   33  102 1    
    69   33  103 1    
    70   34   35 am   BACKBONE|DICT|INTERRES
    71   34  104 1    
    72   35   36 2    
    73   37   38 2    
    74   37   39 am   BACKBONE|DICT|INTERRES
    75   39   40 1    
    76   39  105 1    
    77   40   41 1    
    78   40   42 1    
    79   40  106 1    
    80   41  107 1    
    81   41  108 1    
    82   41  109 1    
    83   42   43 2    
    84   42   44 am   BACKBONE|DICT|INTERRES
    85   44   45 1    
    86   44  110 1    
    87   45   46 1    
    88   45   47 1    
    89   45  111 1    
    90   46  112 1    
    91   46  113 1    
    92   46  114 1    
    93   47   48 2    
    94   47   49 am   BACKBONE|DICT|INTERRES
    95   49   50 1    
    96   49  115 1    
    97   50   51 1    
    98   50   52 1    
    99   50  116 1    
   100   51  117 1    
   101   51  118 1    
   102   51  119 1    
   103   52   53 2    
   104   52   54 am   BACKBONE|DICT|INTERRES
   105   54   55 1    
   106   54  120 1    
   107   55   56 1    
   108   55   57 1    
   109   55  121 1    
   110   56  122 1    
   111   56  123 1    
   112   56  124 1    
   113   57   58 2    
   114   57   59 am   BACKBONE|DICT|INTERRES
   115   59   60 1    
   116   59  125 1    
   117   60   61 1    
   118   60   62 1    
   119   60  126 1    
   120   61  127 1    
   121   61  128 1    
   122   61  129 1    
   123   62   63 2    
   124   62   64 am   BACKBONE|DICT|INTERRES
   125   64   65 1    
   126   64  130 1    
   127   65   66 1    
   128   65   69 1    
   129   65  131 1    
   130   66   67 am   BACKBONE|DICT|INTERRES
   131   66   68 2    
   132   67  132 1    
   133   67  133 1    
   134   69   70 1    
   135   69  134 1    
   136   69  135 1    
   137   70   71 1    
   138   71  136 1    
   139   71  137 1    
@<TRIPOS>SUBSTRUCTURE
     1 UNK         1 GROUP             0       ****    0 ROOT    
