@<TRIPOS>MOLECULE
3R137
137   139    1
SMALL
USER_CHARGES


@<TRIPOS>ATOM
      1 CA         26.2027   -6.3377   -4.5761 C.3       0 UNK        -0.2020 
      2 C          26.0637   -5.4592   -3.3428 C.2       0 UNK         0.4855 
      3 O          24.9629   -5.0003   -3.0365 O.2       0 UNK        -0.5197 
      4 N          27.1710   -5.2053   -2.6353 N.am      1 UNK        -0.4892 
      5 CA         27.2385   -4.3261   -1.4638 C.3       1 UNK         0.0835 
      6 C6         28.5827   -4.4330   -0.6938 C.3       12 UNK        -0.0855 
      7 S7         30.0652   -4.6744   -1.7374 S.3       12 UNK        -0.2931 
      8 C8         31.2166   -3.4217   -1.0904 C.3       12 UNK         0.0378 
      9 C9         31.2051   -2.1528   -1.9286 C.ar      12 UNK        -0.0802 
     10 C10        31.7155   -2.1836   -3.2273 C.ar      12 UNK        -0.0944 
     11 C11        31.7720   -1.0220   -3.9989 C.ar      12 UNK        -0.0787 
     12 C12        31.3251    0.1875   -3.4571 C.ar      12 UNK        -0.0862 
     13 C13        30.7973    0.2322   -2.1596 C.ar      12 UNK        -0.0733 
     14 C14        30.7361   -0.9452   -1.4037 C.ar      12 UNK        -0.0832 
     15 C15        30.3245    1.5460   -1.5384 C.3       12 UNK         0.0240 
     16 S16        29.2765    2.5681   -2.6295 S.3       12 UNK        -0.2522 
     17 C17        27.9693    1.3962   -3.1207 C.3       12 UNK        -0.0967 
     18 CA         28.0315    1.1072   -4.6431 C.3       5 UNK         0.0660 
     19 N          27.7503   -0.2936   -4.9556 N.am      5 UNK        -0.4015 
     20 C          27.8944   -0.8483   -6.1672 C.2       4 UNK         0.4946 
     21 O          28.3692   -0.2640   -7.1412 O.2       4 UNK        -0.5353 
     22 CA         27.3720   -2.2826   -6.3308 C.3       4 UNK         0.0277 
     23 CB         28.4349   -3.3062   -5.8983 C.3       4 UNK        -0.1981 
     24 N          26.1264   -2.4851   -5.5839 N.am      4 UNK        -0.4209 
     25 C          24.9559   -1.9187   -5.9195 C.2       3 UNK         0.4942 
     26 O          24.7881   -1.2514   -6.9392 O.2       3 UNK        -0.5208 
     27 CA         23.7881   -2.0764   -4.9321 C.3       3 UNK         0.0250 
     28 CB         23.0000   -3.3641   -5.2187 C.3       3 UNK        -0.1990 
     29 N          24.2281   -2.0457   -3.5335 N.am      3 UNK        -0.4232 
     30 C          24.6786   -0.9366   -2.9241 C.2       2 UNK         0.4993 
     31 O          24.7346    0.1622   -3.4721 O.2       2 UNK        -0.5286 
     32 CA         25.2038   -1.0624   -1.4833 C.3       2 UNK         0.0209 
     33 CB         24.0783   -0.7807   -0.4758 C.3       2 UNK        -0.1931 
     34 N          25.8113   -2.3610   -1.1877 N.am      2 UNK        -0.4546 
     35 C          26.8639   -2.8776   -1.8363 C.2       1 UNK         0.5154 
     36 O          27.4698   -2.2842   -2.7322 O.2       1 UNK        -0.5181 
     37 C          27.1404    2.0699   -5.4573 C.2       5 UNK         0.5014 
     38 O          27.6630    2.9613   -6.1298 O.2       5 UNK        -0.5248 
     39 N          25.8182    1.8417   -5.4140 N.am      6 UNK        -0.4434 
     40 CA         24.7938    2.6112   -6.1267 C.3       6 UNK         0.0363 
     41 CB         23.3982    2.1099   -5.7249 C.3       6 UNK        -0.1936 
     42 C          24.9464    2.5900   -7.6557 C.2       6 UNK         0.5081 
     43 O          24.6471    3.5949   -8.3009 O.2       6 UNK        -0.5248 
     44 N          25.4600    1.4851   -8.2129 N.am      7 UNK        -0.4718 
     45 CA         25.7981    1.3137   -9.6313 C.3       7 UNK         0.0273 
     46 CB         25.8746   -0.1936   -9.9385 C.3       7 UNK        -0.1935 
     47 C          27.0821    2.0665  -10.0538 C.2       7 UNK         0.5018 
     48 O          27.8813    1.5268  -10.8198 O.2       7 UNK        -0.5186 
     49 N          27.2534    3.2987   -9.5516 N.am      8 UNK        -0.4240 
     50 CA         28.3839    4.2126   -9.7509 C.3       8 UNK         0.0235 
     51 CB         28.3922    4.7500  -11.1982 C.3       8 UNK        -0.2000 
     52 C          29.7350    3.6031   -9.3253 C.2       8 UNK         0.4941 
     53 O          30.7266    3.7633  -10.0398 O.2       8 UNK        -0.5273 
     54 N          29.7391    2.9191   -8.1694 N.am      9 UNK        -0.4262 
     55 CA         30.8574    2.1736   -7.5817 C.3       9 UNK         0.0264 
     56 CB         31.9548    3.1315   -7.0740 C.3       9 UNK        -0.1955 
     57 C          31.3959    1.0885   -8.5316 C.2       9 UNK         0.5031 
     58 O          32.5445    1.1600   -8.9763 O.2       9 UNK        -0.5390 
     59 N          30.5586    0.0811   -8.8092 N.am      10 UNK        -0.4204 
     60 CA         30.8541   -1.0775   -9.6587 C.3       10 UNK         0.0237 
     61 CB         29.5264   -1.7012  -10.1288 C.3       10 UNK        -0.1985 
     62 C          31.7722   -2.1024   -8.9600 C.2       10 UNK         0.4970 
     63 O          31.4363   -3.2853   -8.8796 O.2       10 UNK        -0.4914 
     64 N          32.9070   -1.6224   -8.4446 N.am      11 UNK        -0.4285 
     65 CA         33.9506   -2.4163   -7.7911 C.3       11 UNK         0.1007 
     66 C          34.8019   -3.2018   -8.8267 C.2       11 UNK         0.5703 
     67 N          35.3387   -4.3520   -8.4421 N.am      11 UNK        -0.7361 
     68 O          35.0115   -2.7654   -9.9578 O.2       11 UNK        -0.4986 
     69 C69        34.8515   -1.5244   -6.8945 C.3       12 UNK        -0.0947 
     70 S70        34.1056   -0.7038   -5.4304 S.3       12 UNK        -0.2240 
     71 C71        32.3249   -1.0941   -5.4113 C.3       12 UNK         0.0194 
     72 H72        27.2327   -6.6564   -4.7354 H         1 UNK         0.0906 
     73 H73        25.5834   -7.2282   -4.4727 H         1 UNK         0.0906 
     74 H74        25.8741   -5.7952   -5.4623 H         1 UNK         0.0906 
     75 H75        28.0648   -5.5700   -2.9362 H         1 UNK         0.3140 
     76 H76        26.4671   -4.6857   -0.7785 H         1 UNK         0.1085 
     77 H77        28.5351   -5.2969   -0.0289 H         1 UNK         0.0836 
     78 H78        28.7189   -3.5760   -0.0314 H         1 UNK         0.0836 
     79 H79        32.2241   -3.8400   -1.1095 H         1 UNK         0.0731 
     80 H80        31.0041   -3.2091   -0.0418 H         1 UNK         0.0731 
     81 H81        32.0774   -3.1180   -3.6346 H         1 UNK         0.1312 
     82 H82        31.3894    1.0929   -4.0444 H         1 UNK         0.1406 
     83 H83        30.3446   -0.9185   -0.3959 H         1 UNK         0.1631 
     84 H84        31.1999    2.1293   -1.2507 H         1 UNK         0.0717 
     85 H85        29.7678    1.3559   -0.6194 H         1 UNK         0.0717 
     86 H86        28.0961    0.4753   -2.5495 H         1 UNK         0.0934 
     87 H87        26.9991    1.7907   -2.8117 H         1 UNK         0.0934 
     88 H88        29.0555    1.2674   -4.9803 H         1 UNK         0.0739 
     89 H89        27.4299   -0.8814   -4.1928 H         1 UNK         0.3093 
     90 H90        27.1615   -2.4400   -7.3909 H         1 UNK         0.0818 
     91 H91        28.0902   -4.3277   -6.0557 H         1 UNK         0.0819 
     92 H92        29.3493   -3.1816   -6.4808 H         1 UNK         0.0819 
     93 H93        28.7068   -3.2002   -4.8475 H         1 UNK         0.0819 
     94 H94        26.1958   -2.9665   -4.6985 H         1 UNK         0.3041 
     95 H95        23.1106   -1.2338   -5.0857 H         1 UNK         0.0784 
     96 H96        22.5783   -3.3418   -6.2244 H         1 UNK         0.0793 
     97 H97        23.6281   -4.2522   -5.1540 H         1 UNK         0.0793 
     98 H98        22.1703   -3.4869   -4.5225 H         1 UNK         0.0793 
     99 H99        24.2561   -2.9321   -3.0416 H         1 UNK         0.3024 
    100 H100       25.9760   -0.3012   -1.3541 H         1 UNK         0.1171 
    101 H101       24.4540   -0.7702    0.5476 H         1 UNK         0.0786 
    102 H102       23.6243    0.1940   -0.6615 H         1 UNK         0.0786 
    103 H103       23.2846   -1.5265   -0.5362 H         1 UNK         0.0786 
    104 H104       25.3517   -2.9194   -0.4825 H         1 UNK         0.2977 
    105 H105       25.4705    1.1127   -4.7904 H         1 UNK         0.3127 
    106 H106       24.8887    3.6502   -5.8050 H         1 UNK         0.0770 
    107 H107       23.2549    1.0639   -5.9974 H         1 UNK         0.0814 
    108 H108       22.6169    2.6872   -6.2211 H         1 UNK         0.0814 
    109 H109       23.2362    2.2024   -4.6509 H         1 UNK         0.0814 
    110 H110       25.6513    0.6928   -7.6106 H         1 UNK         0.2983 
    111 H111       24.9846    1.7318  -10.2279 H         1 UNK         0.0947 
    112 H112       26.6715   -0.6755   -9.3714 H         1 UNK         0.0806 
    113 H113       26.0671   -0.3749  -10.9966 H         1 UNK         0.0806 
    114 H114       24.9393   -0.6963   -9.6917 H         1 UNK         0.0806 
    115 H115       26.5081    3.6430   -8.9539 H         1 UNK         0.3000 
    116 H116       28.2126    5.0598   -9.0850 H         1 UNK         0.0850 
    117 H117       29.1556    5.5184  -11.3264 H         1 UNK         0.0810 
    118 H118       27.4347    5.1999  -11.4602 H         1 UNK         0.0810 
    119 H119       28.6010    3.9601  -11.9206 H         1 UNK         0.0810 
    120 H120       28.8707    2.8756   -7.6401 H         1 UNK         0.3040 
    121 H121       30.4579    1.6519   -6.7133 H         1 UNK         0.0766 
    122 H122       32.7524    2.5779   -6.5767 H         1 UNK         0.0812 
    123 H123       31.5549    3.8437   -6.3522 H         1 UNK         0.0812 
    124 H124       32.4104    3.6969   -7.8875 H         1 UNK         0.0812 
    125 H125       29.6574    0.0604   -8.3285 H         1 UNK         0.3205 
    126 H126       31.3865   -0.7252  -10.5445 H         1 UNK         0.0754 
    127 H127       29.7023   -2.5399  -10.8036 H         1 UNK         0.0769 
    128 H128       28.9192   -0.9761  -10.6703 H         1 UNK         0.0769 
    129 H129       28.9368   -2.0724   -9.2898 H         1 UNK         0.0769 
    130 H130       33.1055   -0.6358   -8.5834 H         1 UNK         0.2981 
    131 H131       33.4699   -3.1647   -7.1597 H         1 UNK         0.0541 
    132 H132       35.9060   -4.8694   -9.0953 H         1 UNK         0.3459 
    133 H133       35.1867   -4.7157   -7.5142 H         1 UNK         0.3459 
    134 H134       35.6817   -2.1180   -6.5070 H         1 UNK         0.0612 
    135 H135       35.3136   -0.7432   -7.5011 H         1 UNK         0.0612 
    136 H136       31.7903   -0.3988   -6.0567 H         1 UNK         0.0624 
    137 H137       32.1336   -2.0916   -5.8021 H         1 UNK         0.0624 
@<TRIPOS>BOND
     1    1    2 1    
     2    1   72 1    
     3    1   73 1    
     4    1   74 1    
     5    2    3 2    
     6    2    4 am   BACKBONE|DICT|INTERRES
     7    4    5 1    
     8    4   75 1    
     9    5    6 1    
    10    5   35 1    
    11    5   76 1    
    12    6    7 1    
    13    6   77 1    
    14    6   78 1    
    15    7    8 1    
    16    8    9 1    
    17    8   79 1    
    18    8   80 1    
    19    9   10 ar   
    20    9   14 ar   
    21   10   11 ar   
    22   10   81 1    
    23   11   12 ar   
    24   11   71 1    
    25   12   13 ar   
    26   12   82 1    
    27   13   14 ar   
    28   13   15 1    
    29   14   83 1    
    30   15   16 1    
    31   15   84 1    
    32   15   85 1    
    33   16   17 1    
    34   17   18 1    
    35   17   86 1    
    36   17   87 1    
    37   18   19 1    
    38   18   37 1    
    39   18   88 1    
    40   19   20 am   BACKBONE|DICT|INTERRES
    41   19   89 1    
    42   20   21 2    
    43   20   22 1    
    44   22   23 1    
    45   22   24 1    
    46   22   90 1    
    47   23   91 1    
    48   23   92 1    
    49   23   93 1    
    50   24   25 am   BACKBONE|DICT|INTERRES
    51   24   94 1    
    52   25   26 2    
    53   25   27 1    
    54   27   28 1    
    55   27   29 1    
    56   27   95 1    
    57   28   96 1    
    58   28   97 1    
    59   28   98 1    
    60   29   30 am   BACKBONE|DICT|INTERRES
    61   29   99 1    
    62   30   31 2    
    63   30   32 1    
    64   32   33 1    
    65   32   34 1    
    66   32  100 1    
    67   33  101 1    
    68   33  102 1    
    69   33  103 1    
    70   34   35 am   BACKBONE|DICT|INTERRES
    71   34  104 1    
    72   35   36 2    
    73   37   38 2    
    74   37   39 am   BACKBONE|DICT|INTERRES
    75   39   40 1    
    76   39  105 1    
    77   40   41 1    
    78   40   42 1    
    79   40  106 1    
    80   41  107 1    
    81   41  108 1    
    82   41  109 1    
    83   42   43 2    
    84   42   44 am   BACKBONE|DICT|INTERRES
    85   44   45 1    
    86   44  110 1    
    87   45   46 1    
    88   45   47 1    
    89   45  111 1    
    90   46  112 1    
    91   46  113 1    
    92   46  114 1    
    93   47   48 2    
    94   47   49 am   BACKBONE|DICT|INTERRES
    95   49   50 1    
    96   49  115 1    
    97   50   51 1    
    98   50   52 1    
    99   50  116 1    
   100   51  117 1    
   101   51  118 1    
   102   51  119 1    
   103   52   53 2    
   104   52   54 am   BACKBONE|DICT|INTERRES
   105   54   55 1    
   106   54  120 1    
   107   55   56 1    
   108   55   57 1    
   109   55  121 1    
   110   56  122 1    
   111   56  123 1    
   112   56  124 1    
   113   57   58 2    
   114   57   59 am   BACKBONE|DICT|INTERRES
   115   59   60 1    
   116   59  125 1    
   117   60   61 1    
   118   60   62 1    
   119   60  126 1    
   120   61  127 1    
   121   61  128 1    
   122   61  129 1    
   123   62   63 2    
   124   62   64 am   BACKBONE|DICT|INTERRES
   125   64   65 1    
   126   64  130 1    
   127   65   66 1    
   128   65   69 1    
   129   65  131 1    
   130   66   67 am   BACKBONE|DICT|INTERRES
   131   66   68 2    
   132   67  132 1    
   133   67  133 1    
   134   69   70 1    
   135   69  134 1    
   136   69  135 1    
   137   70   71 1    
   138   71  136 1    
   139   71  137 1    
@<TRIPOS>SUBSTRUCTURE
     1 UNK         1 GROUP             0       ****    0 ROOT    
