@<TRIPOS>MOLECULE
3R137
137   139    1
SMALL
USER_CHARGES


@<TRIPOS>ATOM
      1 CA         25.8629   -6.5515   -5.4357 C.3       0 UNK        -0.2020 
      2 C          26.7398   -5.8723   -4.3939 C.2       0 UNK         0.4855 
      3 O          27.9095   -5.6128   -4.6704 O.2       0 UNK        -0.5197 
      4 N          26.1731   -5.6036   -3.2083 N.am      1 UNK        -0.4892 
      5 CA         26.7495   -4.8718   -2.0718 C.3       1 UNK         0.0835 
      6 C6         28.1519   -5.3691   -1.6343 C.3       12 UNK        -0.0855 
      7 S7         28.6115   -4.8023    0.0420 S.3       12 UNK        -0.2931 
      8 C8         30.4118   -4.5537   -0.1119 C.3       12 UNK         0.0378 
      9 C9         30.7636   -3.4287   -1.0764 C.ar      12 UNK        -0.0802 
     10 C10        31.2196   -3.7270   -2.3634 C.ar      12 UNK        -0.0944 
     11 C11        31.5192   -2.7032   -3.2632 C.ar      12 UNK        -0.0787 
     12 C12        31.3911   -1.3716   -2.8597 C.ar      12 UNK        -0.0862 
     13 C13        30.9440   -1.0537   -1.5712 C.ar      12 UNK        -0.0733 
     14 C14        30.6336   -2.0921   -0.6852 C.ar      12 UNK        -0.0832 
     15 C15        30.7909    0.3958   -1.1063 C.3       12 UNK         0.0240 
     16 S16        30.3340    1.5900   -2.4146 S.3       12 UNK        -0.2522 
     17 C17        28.7510    0.9089   -3.0066 C.3       12 UNK        -0.0967 
     18 CA         28.6028    1.0183   -4.5484 C.3       5 UNK         0.0660 
     19 N          27.9069   -0.1417   -5.1073 N.am      5 UNK        -0.4015 
     20 C          27.7437   -0.4015   -6.4116 C.2       4 UNK         0.4946 
     21 O          28.2475    0.2600   -7.3218 O.2       4 UNK        -0.5353 
     22 CA         26.8442   -1.5955   -6.7580 C.3       4 UNK         0.0277 
     23 CB         27.6727   -2.8880   -6.8132 C.3       4 UNK        -0.1981 
     24 N          25.7394   -1.7446   -5.8045 N.am      4 UNK        -0.4209 
     25 C          24.7006   -0.8976   -5.7274 C.2       3 UNK         0.4942 
     26 O          24.5487    0.0657   -6.4772 O.2       3 UNK        -0.5208 
     27 CA         23.6865   -1.1289   -4.5936 C.3       3 UNK         0.0250 
     28 CB         22.6997   -2.2462   -4.9681 C.3       3 UNK        -0.1990 
     29 N          24.3202   -1.4409   -3.3103 N.am      3 UNK        -0.4232 
     30 C          25.1597   -0.6273   -2.6531 C.2       2 UNK         0.4993 
     31 O          25.4431    0.5083   -3.0299 O.2       2 UNK        -0.5286 
     32 CA         25.8412   -1.1824   -1.3900 C.3       2 UNK         0.0209 
     33 CB         25.0644   -0.7595   -0.1336 C.3       2 UNK        -0.1931 
     34 N          26.0235   -2.6387   -1.3836 N.am      2 UNK        -0.4546 
     35 C          26.6884   -3.3473   -2.3092 C.2       1 UNK         0.5154 
     36 O          27.1951   -2.8407   -3.3137 O.2       1 UNK        -0.5181 
     37 C          27.9122    2.3344   -4.9628 C.2       5 UNK         0.5014 
     38 O          28.5664    3.2237   -5.5081 O.2       5 UNK        -0.5248 
     39 N          26.5934    2.4121   -4.7279 N.am      6 UNK        -0.4434 
     40 CA         25.7335    3.5470   -5.0699 C.3       6 UNK         0.0363 
     41 CB         24.3408    3.3350   -4.4551 C.3       6 UNK        -0.1936 
     42 C          25.6230    3.7931   -6.5830 C.2       6 UNK         0.5081 
     43 O          25.6435    4.9485   -7.0082 O.2       6 UNK        -0.5248 
     44 N          25.5250    2.7124   -7.3702 N.am      7 UNK        -0.4718 
     45 CA         25.5024    2.7594   -8.8357 C.3       7 UNK         0.0273 
     46 CB         25.0199    1.4033   -9.3762 C.3       7 UNK        -0.1935 
     47 C          26.8613    3.1186   -9.4635 C.2       7 UNK         0.5018 
     48 O          26.8864    3.5303  -10.6240 O.2       7 UNK        -0.5186 
     49 N          27.9524    2.9286   -8.7047 N.am      8 UNK        -0.4240 
     50 CA         29.3570    3.0351   -9.1143 C.3       8 UNK         0.0235 
     51 CB         29.7315    4.4932   -9.4529 C.3       8 UNK        -0.2000 
     52 C          29.6993    2.0396  -10.2389 C.2       8 UNK         0.4941 
     53 O          30.3751    2.3956  -11.2078 O.2       8 UNK        -0.5273 
     54 N          29.2096    0.8006  -10.0939 N.am      9 UNK        -0.4262 
     55 CA         29.4093   -0.3070  -11.0290 C.3       9 UNK         0.0264 
     56 CB         28.3225   -1.3670  -10.7720 C.3       9 UNK        -0.1955 
     57 C          30.8322   -0.8738  -10.8868 C.2       9 UNK         0.5031 
     58 O          31.0129   -1.9172  -10.2537 O.2       9 UNK        -0.5390 
     59 N          31.8182   -0.1216  -11.3981 N.am      10 UNK        -0.4204 
     60 CA         33.2666   -0.2781  -11.2117 C.3       10 UNK         0.0237 
     61 CB         33.7901   -1.6059  -11.8032 C.3       10 UNK        -0.1985 
     62 C          33.6444   -0.0710   -9.7350 C.2       10 UNK         0.4970 
     63 O          34.0136    1.0408   -9.3558 O.2       10 UNK        -0.4914 
     64 N          33.4863   -1.1251   -8.9279 N.am      11 UNK        -0.4285 
     65 CA         33.4319   -1.0530   -7.4627 C.3       11 UNK         0.1007 
     66 C          32.1425   -0.3275   -6.9720 C.2       11 UNK         0.5703 
     67 N          30.9972   -0.5790   -7.5942 N.am      11 UNK        -0.7361 
     68 O          32.1875    0.4697   -6.0396 O.2       11 UNK        -0.4986 
     69 C69        33.5832   -2.4773   -6.8618 C.3       12 UNK        -0.0947 
     70 S70        33.6437   -2.5285   -5.0392 S.3       12 UNK        -0.2240 
     71 C71        31.9289   -3.0297   -4.6887 C.3       12 UNK         0.0194 
     72 H72        26.3047   -7.5015   -5.7351 H         1 UNK         0.0906 
     73 H73        24.8579   -6.7482   -5.0627 H         1 UNK         0.0906 
     74 H74        25.7782   -5.9220   -6.3211 H         1 UNK         0.0906 
     75 H75        25.2058   -5.8683   -3.0789 H         1 UNK         0.3140 
     76 H76        26.0718   -5.0986   -1.2467 H         1 UNK         0.1085 
     77 H77        28.9025   -5.0597   -2.3594 H         1 UNK         0.0836 
     78 H78        28.1740   -6.4598   -1.6291 H         1 UNK         0.0836 
     79 H79        30.8775   -5.4901   -0.4236 H         1 UNK         0.0731 
     80 H80        30.8212   -4.3255    0.8733 H         1 UNK         0.0731 
     81 H81        31.3151   -4.7585   -2.6742 H         1 UNK         0.1312 
     82 H82        31.6312   -0.5857   -3.5628 H         1 UNK         0.1406 
     83 H83        30.2821   -1.8637    0.3121 H         1 UNK         0.1631 
     84 H84        31.7335    0.7157   -0.6608 H         1 UNK         0.0717 
     85 H85        30.0396    0.4583   -0.3173 H         1 UNK         0.0717 
     86 H86        28.7012   -0.1386   -2.7082 H         1 UNK         0.0934 
     87 H87        27.9351    1.3977   -2.4704 H         1 UNK         0.0934 
     88 H88        29.5973    1.0135   -5.0007 H         1 UNK         0.0739 
     89 H89        27.4799   -0.7768   -4.4461 H         1 UNK         0.3093 
     90 H90        26.4215   -1.4177   -7.7490 H         1 UNK         0.0818 
     91 H91        28.4877   -2.8008   -7.5329 H         1 UNK         0.0819 
     92 H92        27.0634   -3.7396   -7.1150 H         1 UNK         0.0819 
     93 H93        28.1222   -3.1228   -5.8475 H         1 UNK         0.0819 
     94 H94        25.8398   -2.4666   -5.1023 H         1 UNK         0.3041 
     95 H95        23.1217   -0.2029   -4.4651 H         1 UNK         0.0784 
     96 H96        22.2043   -2.0263   -5.9150 H         1 UNK         0.0793 
     97 H97        23.1984   -3.2102   -5.0775 H         1 UNK         0.0793 
     98 H98        21.9191   -2.3550   -4.2149 H         1 UNK         0.0793 
     99 H99        24.1388   -2.3531   -2.9186 H         1 UNK         0.3024 
    100 H100       26.8348   -0.7344   -1.3385 H         1 UNK         0.1171 
    101 H101       25.5919   -1.0480    0.7759 H         1 UNK         0.0786 
    102 H102       24.9363    0.3237   -0.1002 H         1 UNK         0.0786 
    103 H103       24.0699   -1.2063   -0.1031 H         1 UNK         0.0786 
    104 H104       25.6439   -3.1278   -0.5853 H         1 UNK         0.2977 
    105 H105       26.1438    1.6442   -4.2286 H         1 UNK         0.3127 
    106 H106       26.1732    4.4402   -4.6212 H         1 UNK         0.0770 
    107 H107       23.8646    2.4320   -4.8397 H         1 UNK         0.0814 
    108 H108       23.6817    4.1747   -4.6791 H         1 UNK         0.0814 
    109 H109       24.3962    3.2457   -3.3700 H         1 UNK         0.0814 
    110 H110       25.4328    1.7952   -6.9417 H         1 UNK         0.2983 
    111 H111       24.7879    3.5261   -9.1432 H         1 UNK         0.0947 
    112 H112       24.9644    1.4116  -10.4656 H         1 UNK         0.0806 
    113 H113       24.0251    1.1586   -9.0036 H         1 UNK         0.0806 
    114 H114       25.6937    0.5949   -9.0899 H         1 UNK         0.0806 
    115 H115       27.8067    2.5613   -7.7722 H         1 UNK         0.3000 
    116 H116       29.9491    2.7327   -8.2487 H         1 UNK         0.0850 
    117 H117       30.8023    4.5865   -9.6379 H         1 UNK         0.0810 
    118 H118       29.4844    5.1652   -8.6311 H         1 UNK         0.0810 
    119 H119       29.2162    4.8492  -10.3454 H         1 UNK         0.0810 
    120 H120       28.7182    0.5857   -9.2306 H         1 UNK         0.3040 
    121 H121       29.2892    0.0599  -12.0506 H         1 UNK         0.0766 
    122 H122       27.3252   -0.9599  -10.9393 H         1 UNK         0.0812 
    123 H123       28.3607   -1.7460   -9.7504 H         1 UNK         0.0812 
    124 H124       28.4428   -2.2195  -11.4416 H         1 UNK         0.0812 
    125 H125       31.5305    0.7766  -11.7762 H         1 UNK         0.3205 
    126 H126       33.7361    0.5331  -11.7705 H         1 UNK         0.0754 
    127 H127       34.8683   -1.6938  -11.6635 H         1 UNK         0.0769 
    128 H128       33.6000   -1.6551  -12.8754 H         1 UNK         0.0769 
    129 H129       33.3314   -2.4843  -11.3496 H         1 UNK         0.0769 
    130 H130       33.0951   -1.9604   -9.3421 H         1 UNK         0.2981 
    131 H131       34.2842   -0.4587   -7.1276 H         1 UNK         0.0541 
    132 H132       30.9768   -1.2114   -8.3856 H         1 UNK         0.3459 
    133 H133       30.1443   -0.1188   -7.3008 H         1 UNK         0.3459 
    134 H134       32.7830   -3.1294   -7.2172 H         1 UNK         0.0612 
    135 H135       34.5101   -2.9250   -7.2236 H         1 UNK         0.0612 
    136 H136       31.8243   -4.0965   -4.8928 H         1 UNK         0.0624 
    137 H137       31.2397   -2.5222   -5.3643 H         1 UNK         0.0624 
@<TRIPOS>BOND
     1    1    2 1    
     2    1   72 1    
     3    1   73 1    
     4    1   74 1    
     5    2    3 2    
     6    2    4 am   BACKBONE|DICT|INTERRES
     7    4    5 1    
     8    4   75 1    
     9    5    6 1    
    10    5   35 1    
    11    5   76 1    
    12    6    7 1    
    13    6   77 1    
    14    6   78 1    
    15    7    8 1    
    16    8    9 1    
    17    8   79 1    
    18    8   80 1    
    19    9   10 ar   
    20    9   14 ar   
    21   10   11 ar   
    22   10   81 1    
    23   11   12 ar   
    24   11   71 1    
    25   12   13 ar   
    26   12   82 1    
    27   13   14 ar   
    28   13   15 1    
    29   14   83 1    
    30   15   16 1    
    31   15   84 1    
    32   15   85 1    
    33   16   17 1    
    34   17   18 1    
    35   17   86 1    
    36   17   87 1    
    37   18   19 1    
    38   18   37 1    
    39   18   88 1    
    40   19   20 am   BACKBONE|DICT|INTERRES
    41   19   89 1    
    42   20   21 2    
    43   20   22 1    
    44   22   23 1    
    45   22   24 1    
    46   22   90 1    
    47   23   91 1    
    48   23   92 1    
    49   23   93 1    
    50   24   25 am   BACKBONE|DICT|INTERRES
    51   24   94 1    
    52   25   26 2    
    53   25   27 1    
    54   27   28 1    
    55   27   29 1    
    56   27   95 1    
    57   28   96 1    
    58   28   97 1    
    59   28   98 1    
    60   29   30 am   BACKBONE|DICT|INTERRES
    61   29   99 1    
    62   30   31 2    
    63   30   32 1    
    64   32   33 1    
    65   32   34 1    
    66   32  100 1    
    67   33  101 1    
    68   33  102 1    
    69   33  103 1    
    70   34   35 am   BACKBONE|DICT|INTERRES
    71   34  104 1    
    72   35   36 2    
    73   37   38 2    
    74   37   39 am   BACKBONE|DICT|INTERRES
    75   39   40 1    
    76   39  105 1    
    77   40   41 1    
    78   40   42 1    
    79   40  106 1    
    80   41  107 1    
    81   41  108 1    
    82   41  109 1    
    83   42   43 2    
    84   42   44 am   BACKBONE|DICT|INTERRES
    85   44   45 1    
    86   44  110 1    
    87   45   46 1    
    88   45   47 1    
    89   45  111 1    
    90   46  112 1    
    91   46  113 1    
    92   46  114 1    
    93   47   48 2    
    94   47   49 am   BACKBONE|DICT|INTERRES
    95   49   50 1    
    96   49  115 1    
    97   50   51 1    
    98   50   52 1    
    99   50  116 1    
   100   51  117 1    
   101   51  118 1    
   102   51  119 1    
   103   52   53 2    
   104   52   54 am   BACKBONE|DICT|INTERRES
   105   54   55 1    
   106   54  120 1    
   107   55   56 1    
   108   55   57 1    
   109   55  121 1    
   110   56  122 1    
   111   56  123 1    
   112   56  124 1    
   113   57   58 2    
   114   57   59 am   BACKBONE|DICT|INTERRES
   115   59   60 1    
   116   59  125 1    
   117   60   61 1    
   118   60   62 1    
   119   60  126 1    
   120   61  127 1    
   121   61  128 1    
   122   61  129 1    
   123   62   63 2    
   124   62   64 am   BACKBONE|DICT|INTERRES
   125   64   65 1    
   126   64  130 1    
   127   65   66 1    
   128   65   69 1    
   129   65  131 1    
   130   66   67 am   BACKBONE|DICT|INTERRES
   131   66   68 2    
   132   67  132 1    
   133   67  133 1    
   134   69   70 1    
   135   69  134 1    
   136   69  135 1    
   137   70   71 1    
   138   71  136 1    
   139   71  137 1    
@<TRIPOS>SUBSTRUCTURE
     1 UNK         1 GROUP             0       ****    0 ROOT    
