@<TRIPOS>MOLECULE
3R137
137   139    1
SMALL
USER_CHARGES


@<TRIPOS>ATOM
      1 CA         27.4603    1.8970    2.8030 C.3       0 UNK        -0.2020 
      2 C          27.1192    1.1537    1.5199 C.2       0 UNK         0.4855 
      3 O          26.6806    1.7750    0.5510 O.2       0 UNK        -0.5197 
      4 N          27.3237   -0.1695    1.5023 N.am      1 UNK        -0.4892 
      5 CA         26.9825   -1.0480    0.3784 C.3       1 UNK         0.0835 
      6 C6         27.7997   -2.3659    0.4266 C.3       12 UNK        -0.0855 
      7 S7         28.0795   -3.0397   -1.2457 S.3       12 UNK        -0.2931 
      8 C8         29.8633   -2.7255   -1.4674 C.3       12 UNK         0.0378 
      9 C9         30.3176   -2.8440   -2.9197 C.ar      12 UNK        -0.0802 
     10 C10        31.2146   -1.9061   -3.4419 C.ar      12 UNK        -0.0944 
     11 C11        31.6486   -1.9974   -4.7674 C.ar      12 UNK        -0.0787 
     12 C12        31.1750   -3.0316   -5.5796 C.ar      12 UNK        -0.0862 
     13 C13        30.2861   -3.9807   -5.0694 C.ar      12 UNK        -0.0733 
     14 C14        29.8680   -3.8862   -3.7390 C.ar      12 UNK        -0.0832 
     15 C15        29.7917   -5.1254   -5.9389 C.3       12 UNK         0.0240 
     16 S16        28.1519   -4.7760   -6.6454 S.3       12 UNK        -0.2522 
     17 C17        28.5672   -3.8052   -8.1394 C.3       12 UNK        -0.0967 
     18 CA         27.8134   -2.4559   -8.2586 C.3       5 UNK         0.0660 
     19 N          26.3787   -2.6100   -8.0042 N.am      5 UNK        -0.4015 
     20 C          25.4399   -1.6754   -8.1889 C.2       4 UNK         0.4946 
     21 O          25.6748   -0.5539   -8.6384 O.2       4 UNK        -0.5353 
     22 CA         24.0045   -2.0145   -7.7445 C.3       4 UNK         0.0277 
     23 CB         23.7753   -3.5115   -7.4309 C.3       4 UNK        -0.1981 
     24 N          23.5879   -1.1862   -6.6054 N.am      4 UNK        -0.4209 
     25 C          24.2146   -1.0683   -5.4243 C.2       3 UNK         0.4942 
     26 O          25.2697   -1.6456   -5.1506 O.2       3 UNK        -0.5208 
     27 CA         23.5990   -0.1108   -4.3827 C.3       3 UNK         0.0250 
     28 CB         22.1416    0.3105   -4.6832 C.3       3 UNK        -0.1990 
     29 N          23.7237   -0.6376   -3.0187 N.am      3 UNK        -0.4232 
     30 C          23.2042   -1.7791   -2.5399 C.2       2 UNK         0.4993 
     31 O          22.4652   -2.5258   -3.1844 O.2       2 UNK        -0.5286 
     32 CA         23.5931   -2.1460   -1.0983 C.3       2 UNK         0.0209 
     33 CB         23.3727   -3.6372   -0.7729 C.3       2 UNK        -0.1931 
     34 N          24.9893   -1.7881   -0.8384 N.am      2 UNK        -0.4546 
     35 C          25.4616   -1.3204    0.3219 C.2       1 UNK         0.5154 
     36 O          24.7572   -1.1346    1.3188 O.2       1 UNK        -0.5181 
     37 C          28.4810   -1.3313   -7.4354 C.2       5 UNK         0.5014 
     38 O          29.4408   -0.7301   -7.9258 O.2       5 UNK        -0.5248 
     39 N          27.9535   -1.0294   -6.2385 N.am      6 UNK        -0.4434 
     40 CA         28.4053    0.0914   -5.4113 C.3       6 UNK         0.0363 
     41 CB         27.9530   -0.1152   -3.9568 C.3       6 UNK        -0.1936 
     42 C          27.8961    1.4413   -5.9422 C.2       6 UNK         0.5081 
     43 O          28.6231    2.4303   -5.8627 O.2       6 UNK        -0.5248 
     44 N          26.6711    1.4607   -6.4897 N.am      7 UNK        -0.4718 
     45 CA         26.0528    2.6462   -7.0940 C.3       7 UNK         0.0273 
     46 CB         24.5285    2.4643   -7.1763 C.3       7 UNK        -0.1935 
     47 C          26.6418    2.9556   -8.4780 C.2       7 UNK         0.5018 
     48 O          26.8755    4.1228   -8.7924 O.2       7 UNK        -0.5186 
     49 N          26.9089    1.9006   -9.2605 N.am      8 UNK        -0.4240 
     50 CA         27.6180    1.9587  -10.5415 C.3       8 UNK         0.0235 
     51 CB         27.4399    0.6168  -11.2702 C.3       8 UNK        -0.2000 
     52 C          29.1159    2.2900  -10.3974 C.2       8 UNK         0.4941 
     53 O          29.7374    2.6690  -11.3906 O.2       8 UNK        -0.5273 
     54 N          29.6589    2.1331   -9.1795 N.am      9 UNK        -0.4262 
     55 CA         31.0534    2.3379   -8.7807 C.3       9 UNK         0.0264 
     56 CB         31.4528    3.8239   -8.8996 C.3       9 UNK        -0.1955 
     57 C          32.0099    1.3891   -9.5230 C.2       9 UNK         0.5031 
     58 O          33.0347    1.8263  -10.0519 O.2       9 UNK        -0.5390 
     59 N          31.6685    0.0911   -9.5241 N.am      10 UNK        -0.4204 
     60 CA         32.4277   -0.9860  -10.1770 C.3       10 UNK         0.0237 
     61 CB         31.6407   -2.2991  -10.0502 C.3       10 UNK        -0.1985 
     62 C          33.8601   -1.1682   -9.6364 C.2       10 UNK         0.4970 
     63 O          34.7080   -1.7228  -10.3362 O.2       10 UNK        -0.4914 
     64 N          34.0970   -0.6841   -8.4129 N.am      11 UNK        -0.4285 
     65 CA         35.4042   -0.5910   -7.7534 C.3       11 UNK         0.1007 
     66 C          36.3556    0.4769   -8.3710 C.2       11 UNK         0.5703 
     67 N          35.8879    1.3880   -9.2186 N.am      11 UNK        -0.7361 
     68 O          37.5486    0.4729   -8.0770 O.2       11 UNK        -0.4986 
     69 C69        35.2375   -0.3625   -6.2273 C.3       12 UNK        -0.0947 
     70 S70        34.3083   -1.7026   -5.4106 S.3       12 UNK        -0.2240 
     71 C71        32.6364   -0.9871   -5.3248 C.3       12 UNK         0.0194 
     72 H72        27.8531    1.2296    3.5698 H         1 UNK         0.0906 
     73 H73        28.2093    2.6634    2.6050 H         1 UNK         0.0906 
     74 H74        26.5708    2.3844    3.2012 H         1 UNK         0.0906 
     75 H75        27.6435   -0.6325    2.3414 H         1 UNK         0.3140 
     76 H76        27.2500   -0.5083   -0.5338 H         1 UNK         0.1085 
     77 H77        28.7711   -2.1960    0.8943 H         1 UNK         0.0836 
     78 H78        27.3112   -3.1230    1.0439 H         1 UNK         0.0836 
     79 H79        30.4314   -3.4283   -0.8567 H         1 UNK         0.0731 
     80 H80        30.0887   -1.7265   -1.0900 H         1 UNK         0.0731 
     81 H81        31.5812   -1.1050   -2.8147 H         1 UNK         0.1312 
     82 H82        31.5131   -3.1032   -6.6036 H         1 UNK         0.1406 
     83 H83        29.1828   -4.6240   -3.3442 H         1 UNK         0.1631 
     84 H84        29.7228   -6.0322   -5.3361 H         1 UNK         0.0717 
     85 H85        30.5044   -5.3492   -6.7342 H         1 UNK         0.0717 
     86 H86        29.6449   -3.6561   -8.2039 H         1 UNK         0.0934 
     87 H87        28.3169   -4.4269   -9.0005 H         1 UNK         0.0934 
     88 H88        27.9006   -2.1396   -9.2996 H         1 UNK         0.0739 
     89 H89        26.1082   -3.4839   -7.5760 H         1 UNK         0.3093 
     90 H90        23.3581   -1.7477   -8.5819 H         1 UNK         0.0818 
     91 H91        22.7246   -3.7041   -7.2132 H         1 UNK         0.0819 
     92 H92        24.0422   -4.1410   -8.2810 H         1 UNK         0.0819 
     93 H93        24.3507   -3.8495   -6.5680 H         1 UNK         0.0819 
     94 H94        22.7436   -0.6493   -6.7449 H         1 UNK         0.3041 
     95 H95        24.2145    0.7891   -4.4073 H         1 UNK         0.0784 
     96 H96        22.0692    0.8703   -5.6162 H         1 UNK         0.0793 
     97 H97        21.4735   -0.5486   -4.7569 H         1 UNK         0.0793 
     98 H98        21.7538    0.9603   -3.8984 H         1 UNK         0.0793 
     99 H99        24.3258   -0.1097   -2.4028 H         1 UNK         0.3024 
    100 H100       22.9377   -1.5555   -0.4535 H         1 UNK         0.1171 
    101 H101       23.6255   -3.8587    0.2641 H         1 UNK         0.0786 
    102 H102       22.3298   -3.9224   -0.9169 H         1 UNK         0.0786 
    103 H103       23.9808   -4.2797   -1.4108 H         1 UNK         0.0786 
    104 H104       25.6388   -1.9587   -1.5965 H         1 UNK         0.2977 
    105 H105       27.1452   -1.5461   -5.9029 H         1 UNK         0.3127 
    106 H106       29.4975    0.1089   -5.4255 H         1 UNK         0.0770 
    107 H107       26.8750   -0.0042   -3.8425 H         1 UNK         0.0814 
    108 H108       28.4258    0.6129   -3.2969 H         1 UNK         0.0814 
    109 H109       28.2235   -1.1060   -3.5963 H         1 UNK         0.0814 
    110 H110       26.1761    0.5855   -6.5883 H         1 UNK         0.2983 
    111 H111       26.2551    3.5072   -6.4524 H         1 UNK         0.0947 
    112 H112       24.0610    3.3219   -7.6622 H         1 UNK         0.0806 
    113 H113       24.0862    2.3824   -6.1848 H         1 UNK         0.0806 
    114 H114       24.2520    1.5782   -7.7483 H         1 UNK         0.0806 
    115 H115       26.5923    0.9809   -8.9550 H         1 UNK         0.3000 
    116 H116       27.1631    2.7457  -11.1466 H         1 UNK         0.0850 
    117 H117       27.9007    0.6440  -12.2586 H         1 UNK         0.0810 
    118 H118       26.3858    0.3761  -11.4096 H         1 UNK         0.0810 
    119 H119       27.9008   -0.2025  -10.7182 H         1 UNK         0.0810 
    120 H120       29.0519    1.7845   -8.4505 H         1 UNK         0.3040 
    121 H121       31.1099    2.0667   -7.7252 H         1 UNK         0.0766 
    122 H122       31.4635    4.1609   -9.9366 H         1 UNK         0.0812 
    123 H123       32.4512    3.9924   -8.4942 H         1 UNK         0.0812 
    124 H124       30.7655    4.4634   -8.3456 H         1 UNK         0.0812 
    125 H125       30.8193   -0.1836   -9.0299 H         1 UNK         0.3205 
    126 H126       32.5096   -0.7321  -11.2357 H         1 UNK         0.0754 
    127 H127       32.1341   -3.1056  -10.5943 H         1 UNK         0.0769 
    128 H128       30.6329   -2.2027  -10.4551 H         1 UNK         0.0769 
    129 H129       31.5593   -2.6102   -9.0091 H         1 UNK         0.0769 
    130 H130       33.3319   -0.2430   -7.9298 H         1 UNK         0.2981 
    131 H131       35.9035   -1.5516   -7.8928 H         1 UNK         0.0541 
    132 H132       34.9069    1.4176   -9.4766 H         1 UNK         0.3459 
    133 H133       36.5244    2.0652   -9.6072 H         1 UNK         0.3459 
    134 H134       36.2144   -0.3113   -5.7428 H         1 UNK         0.0612 
    135 H135       34.7512    0.5944   -6.0284 H         1 UNK         0.0612 
    136 H136       32.6590   -0.0879   -4.7071 H         1 UNK         0.0624 
    137 H137       32.3063   -0.6755   -6.3158 H         1 UNK         0.0624 
@<TRIPOS>BOND
     1    1    2 1    
     2    1   72 1    
     3    1   73 1    
     4    1   74 1    
     5    2    3 2    
     6    2    4 am   BACKBONE|DICT|INTERRES
     7    4    5 1    
     8    4   75 1    
     9    5    6 1    
    10    5   35 1    
    11    5   76 1    
    12    6    7 1    
    13    6   77 1    
    14    6   78 1    
    15    7    8 1    
    16    8    9 1    
    17    8   79 1    
    18    8   80 1    
    19    9   10 ar   
    20    9   14 ar   
    21   10   11 ar   
    22   10   81 1    
    23   11   12 ar   
    24   11   71 1    
    25   12   13 ar   
    26   12   82 1    
    27   13   14 ar   
    28   13   15 1    
    29   14   83 1    
    30   15   16 1    
    31   15   84 1    
    32   15   85 1    
    33   16   17 1    
    34   17   18 1    
    35   17   86 1    
    36   17   87 1    
    37   18   19 1    
    38   18   37 1    
    39   18   88 1    
    40   19   20 am   BACKBONE|DICT|INTERRES
    41   19   89 1    
    42   20   21 2    
    43   20   22 1    
    44   22   23 1    
    45   22   24 1    
    46   22   90 1    
    47   23   91 1    
    48   23   92 1    
    49   23   93 1    
    50   24   25 am   BACKBONE|DICT|INTERRES
    51   24   94 1    
    52   25   26 2    
    53   25   27 1    
    54   27   28 1    
    55   27   29 1    
    56   27   95 1    
    57   28   96 1    
    58   28   97 1    
    59   28   98 1    
    60   29   30 am   BACKBONE|DICT|INTERRES
    61   29   99 1    
    62   30   31 2    
    63   30   32 1    
    64   32   33 1    
    65   32   34 1    
    66   32  100 1    
    67   33  101 1    
    68   33  102 1    
    69   33  103 1    
    70   34   35 am   BACKBONE|DICT|INTERRES
    71   34  104 1    
    72   35   36 2    
    73   37   38 2    
    74   37   39 am   BACKBONE|DICT|INTERRES
    75   39   40 1    
    76   39  105 1    
    77   40   41 1    
    78   40   42 1    
    79   40  106 1    
    80   41  107 1    
    81   41  108 1    
    82   41  109 1    
    83   42   43 2    
    84   42   44 am   BACKBONE|DICT|INTERRES
    85   44   45 1    
    86   44  110 1    
    87   45   46 1    
    88   45   47 1    
    89   45  111 1    
    90   46  112 1    
    91   46  113 1    
    92   46  114 1    
    93   47   48 2    
    94   47   49 am   BACKBONE|DICT|INTERRES
    95   49   50 1    
    96   49  115 1    
    97   50   51 1    
    98   50   52 1    
    99   50  116 1    
   100   51  117 1    
   101   51  118 1    
   102   51  119 1    
   103   52   53 2    
   104   52   54 am   BACKBONE|DICT|INTERRES
   105   54   55 1    
   106   54  120 1    
   107   55   56 1    
   108   55   57 1    
   109   55  121 1    
   110   56  122 1    
   111   56  123 1    
   112   56  124 1    
   113   57   58 2    
   114   57   59 am   BACKBONE|DICT|INTERRES
   115   59   60 1    
   116   59  125 1    
   117   60   61 1    
   118   60   62 1    
   119   60  126 1    
   120   61  127 1    
   121   61  128 1    
   122   61  129 1    
   123   62   63 2    
   124   62   64 am   BACKBONE|DICT|INTERRES
   125   64   65 1    
   126   64  130 1    
   127   65   66 1    
   128   65   69 1    
   129   65  131 1    
   130   66   67 am   BACKBONE|DICT|INTERRES
   131   66   68 2    
   132   67  132 1    
   133   67  133 1    
   134   69   70 1    
   135   69  134 1    
   136   69  135 1    
   137   70   71 1    
   138   71  136 1    
   139   71  137 1    
@<TRIPOS>SUBSTRUCTURE
     1 UNK         1 GROUP             0       ****    0 ROOT    
