@<TRIPOS>MOLECULE
3R137
137   139    1
SMALL
USER_CHARGES


@<TRIPOS>ATOM
      1 CA         25.3355   -1.9878    2.7544 C.3       0 UNK        -0.2020 
      2 C          26.0646   -0.8750    2.0169 C.2       0 UNK         0.4855 
      3 O          25.8951    0.2969    2.3533 O.2       0 UNK        -0.5197 
      4 N          26.8747   -1.2318    1.0119 N.am      1 UNK        -0.4892 
      5 CA         27.6425   -0.3003    0.1741 C.3       1 UNK         0.0835 
      6 C6         28.8031   -1.0155   -0.5678 C.3       12 UNK        -0.0855 
      7 S7         28.3003   -2.5173   -1.4866 S.3       12 UNK        -0.2931 
      8 C8         29.9226   -3.2755   -1.8320 C.3       12 UNK         0.0378 
      9 C9         30.3749   -3.0388   -3.2674 C.ar      12 UNK        -0.0802 
     10 C10        31.0491   -1.8642   -3.6216 C.ar      12 UNK        -0.0944 
     11 C11        31.4766   -1.6623   -4.9387 C.ar      12 UNK        -0.0787 
     12 C12        31.2389   -2.6507   -5.8963 C.ar      12 UNK        -0.0862 
     13 C13        30.5829   -3.8345   -5.5545 C.ar      12 UNK        -0.0733 
     14 C14        30.1437   -4.0181   -4.2397 C.ar      12 UNK        -0.0832 
     15 C15        30.3794   -4.9279   -6.5971 C.3       12 UNK         0.0240 
     16 S16        29.5079   -4.3461   -8.0886 S.3       12 UNK        -0.2522 
     17 C17        27.8928   -3.8679   -7.4012 C.3       12 UNK        -0.0967 
     18 CA         27.3524   -2.5184   -7.9366 C.3       5 UNK         0.0660 
     19 N          25.9311   -2.4115   -7.6019 N.am      5 UNK        -0.4015 
     20 C          25.0880   -1.4250   -7.9155 C.2       4 UNK         0.4946 
     21 O          25.3985   -0.4596   -8.6116 O.2       4 UNK        -0.5353 
     22 CA         23.6785   -1.4970   -7.2975 C.3       4 UNK         0.0277 
     23 CB         22.7865   -2.4827   -8.0758 C.3       4 UNK        -0.1981 
     24 N          23.6516   -1.7743   -5.8483 N.am      4 UNK        -0.4209 
     25 C          24.0540   -2.8658   -5.1791 C.2       3 UNK         0.4942 
     26 O          24.5660   -3.8462   -5.7237 O.2       3 UNK        -0.5208 
     27 CA         23.8806   -2.8491   -3.6460 C.3       3 UNK         0.0250 
     28 CB         24.4546   -4.1125   -2.9754 C.3       3 UNK        -0.1990 
     29 N          24.4755   -1.6741   -2.9992 N.am      3 UNK        -0.4232 
     30 C          23.9459   -0.4420   -2.9708 C.2       2 UNK         0.4993 
     31 O          22.9474   -0.1280   -3.6205 O.2       2 UNK        -0.5286 
     32 CA         24.6234    0.6073   -2.0707 C.3       2 UNK         0.0209 
     33 CB         23.5928    1.4284   -1.2727 C.3       2 UNK        -0.1931 
     34 N          25.5787   -0.0037   -1.1405 N.am      2 UNK        -0.4546 
     35 C          26.7637    0.5181   -0.7972 C.2       1 UNK         0.5154 
     36 O          27.1761    1.6017   -1.2128 O.2       1 UNK        -0.5181 
     37 C          28.1563   -1.3019   -7.4205 C.2       5 UNK         0.5014 
     38 O          29.0019   -0.7632   -8.1396 O.2       5 UNK        -0.5248 
     39 N          27.8246   -0.8546   -6.2013 N.am      6 UNK        -0.4434 
     40 CA         28.3849    0.3388   -5.5717 C.3       6 UNK         0.0363 
     41 CB         28.1421    0.2675   -4.0636 C.3       6 UNK        -0.1936 
     42 C          27.8219    1.6514   -6.1348 C.2       6 UNK         0.5081 
     43 O          28.5453    2.6452   -6.1530 O.2       6 UNK        -0.5248 
     44 N          26.5674    1.6420   -6.6096 N.am      7 UNK        -0.4718 
     45 CA         25.9388    2.7877   -7.2795 C.3       7 UNK         0.0273 
     46 CB         24.4148    2.5960   -7.3387 C.3       7 UNK        -0.1935 
     47 C          26.5288    3.0158   -8.6818 C.2       7 UNK         0.5018 
     48 O          26.7292    4.1633   -9.0796 O.2       7 UNK        -0.5186 
     49 N          26.8566    1.9147   -9.3733 N.am      8 UNK        -0.4240 
     50 CA         27.6547    1.8934  -10.6024 C.3       8 UNK         0.0235 
     51 CB         27.4988    0.5151  -11.2668 C.3       8 UNK        -0.2000 
     52 C          29.1473    2.2091  -10.3685 C.2       8 UNK         0.4941 
     53 O          29.8565    2.4797  -11.3382 O.2       8 UNK        -0.5273 
     54 N          29.5923    2.1570   -9.1026 N.am      9 UNK        -0.4262 
     55 CA         30.9558    2.3688   -8.6044 C.3       9 UNK         0.0264 
     56 CB         31.3993    3.8310   -8.8184 C.3       9 UNK        -0.1955 
     57 C          31.9652    1.3475   -9.1581 C.2       9 UNK         0.5031 
     58 O          33.1339    1.6844   -9.3667 O.2       9 UNK        -0.5390 
     59 N          31.5164    0.1015   -9.3637 N.am      10 UNK        -0.4204 
     60 CA         32.2838   -0.9839   -9.9823 C.3       10 UNK         0.0237 
     61 CB         31.2989   -1.9917  -10.5999 C.3       10 UNK        -0.1985 
     62 C          33.3055   -1.6364   -9.0262 C.2       10 UNK         0.4970 
     63 O          33.3978   -2.8633   -8.9636 O.2       10 UNK        -0.4914 
     64 N          34.0588   -0.8023   -8.3050 N.am      11 UNK        -0.4285 
     65 CA         35.1508   -1.1820   -7.4003 C.3       11 UNK         0.1007 
     66 C          36.2979   -0.1321   -7.3340 C.2       11 UNK         0.5703 
     67 N          36.2512    0.9647   -8.0850 N.am      11 UNK        -0.7361 
     68 O          37.2696   -0.3279   -6.6076 O.2       11 UNK        -0.4986 
     69 C69        34.6432   -1.6577   -6.0089 C.3       12 UNK        -0.0947 
     70 S70        33.9419   -0.3465   -4.9428 S.3       12 UNK        -0.2240 
     71 C71        32.1669   -0.3680   -5.3450 C.3       12 UNK         0.0194 
     72 H72        25.6051   -1.9771    3.8102 H         1 UNK         0.0906 
     73 H73        24.2579   -1.8464    2.6766 H         1 UNK         0.0906 
     74 H74        25.5784   -2.9716    2.3529 H         1 UNK         0.0906 
     75 H75        26.9903   -2.2090    0.7781 H         1 UNK         0.3140 
     76 H76        28.0962    0.4346    0.8435 H         1 UNK         0.1085 
     77 H77        29.3163   -0.3321   -1.2473 H         1 UNK         0.0836 
     78 H78        29.5522   -1.3074    0.1698 H         1 UNK         0.0836 
     79 H79        30.6781   -2.9035   -1.1387 H         1 UNK         0.0731 
     80 H80        29.8483   -4.3467   -1.6386 H         1 UNK         0.0731 
     81 H81        31.2331   -1.1036   -2.8755 H         1 UNK         0.1312 
     82 H82        31.5648   -2.5027   -6.9157 H         1 UNK         0.1406 
     83 H83        29.6338   -4.9320   -3.9662 H         1 UNK         0.1631 
     84 H84        29.8306   -5.7721   -6.1769 H         1 UNK         0.0717 
     85 H85        31.3562   -5.3127   -6.8934 H         1 UNK         0.0717 
     86 H86        27.2016   -4.6712   -7.6630 H         1 UNK         0.0934 
     87 H87        27.9276   -3.8617   -6.3103 H         1 UNK         0.0934 
     88 H88        27.4232   -2.5184   -9.0262 H         1 UNK         0.0739 
     89 H89        25.5526   -3.1397   -6.9960 H         1 UNK         0.3093 
     90 H90        23.2394   -0.5049   -7.4127 H         1 UNK         0.0818 
     91 H91        21.7624   -2.4675   -7.7028 H         1 UNK         0.0819 
     92 H92        22.7488   -2.2207   -9.1341 H         1 UNK         0.0819 
     93 H93        23.1507   -3.5083   -8.0094 H         1 UNK         0.0819 
     94 H94        23.2690   -1.0280   -5.2706 H         1 UNK         0.3041 
     95 H95        22.8051   -2.8369   -3.4557 H         1 UNK         0.0784 
     96 H96        24.0014   -5.0160   -3.3858 H         1 UNK         0.0793 
     97 H97        25.5329   -4.1926   -3.1211 H         1 UNK         0.0793 
     98 H98        24.2600   -4.1168   -1.9028 H         1 UNK         0.0793 
     99 H99        25.3421   -1.8332   -2.5062 H         1 UNK         0.3024 
    100 H100       25.1493    1.2863   -2.7457 H         1 UNK         0.1171 
    101 H101       22.8919    1.9370   -1.9360 H         1 UNK         0.0786 
    102 H102       24.0795    2.1965   -0.6713 H         1 UNK         0.0786 
    103 H103       23.0102    0.7971   -0.6008 H         1 UNK         0.0786 
    104 H104       25.3032   -0.8742   -0.7076 H         1 UNK         0.2977 
    105 H105       27.1340   -1.3669   -5.6743 H         1 UNK         0.3127 
    106 H106       29.4609    0.3431   -5.7476 H         1 UNK         0.0770 
    107 H107       27.0791    0.2712   -3.8275 H         1 UNK         0.0814 
    108 H108       28.5984    1.1165   -3.5526 H         1 UNK         0.0814 
    109 H109       28.5749   -0.6360   -3.6423 H         1 UNK         0.0814 
    110 H110       26.0513    0.7752   -6.6091 H         1 UNK         0.2983 
    111 H111       26.1424    3.6820   -6.6857 H         1 UNK         0.0947 
    112 H112       23.9310    3.4863   -7.7425 H         1 UNK         0.0806 
    113 H113       23.9953    2.4218   -6.3476 H         1 UNK         0.0806 
    114 H114       24.1311    1.7603   -7.9776 H         1 UNK         0.0806 
    115 H115       26.5569    1.0134   -9.0083 H         1 UNK         0.3000 
    116 H116       27.2606    2.6528  -11.2809 H         1 UNK         0.0850 
    117 H117       28.0442    0.4706  -12.2104 H         1 UNK         0.0810 
    118 H118       26.4534    0.2957  -11.4851 H         1 UNK         0.0810 
    119 H119       27.8815   -0.2842  -10.6309 H         1 UNK         0.0810 
    120 H120       28.9150    1.9149   -8.3928 H         1 UNK         0.3040 
    121 H121       30.9155    2.1931   -7.5286 H         1 UNK         0.0766 
    122 H122       30.6733    4.5289   -8.4012 H         1 UNK         0.0812 
    123 H123       31.5232    4.0659   -9.8760 H         1 UNK         0.0812 
    124 H124       32.3539    4.0264   -8.3284 H         1 UNK         0.0812 
    125 H125       30.5665   -0.1259   -9.0742 H         1 UNK         0.3205 
    126 H126       32.8658   -0.5614  -10.8041 H         1 UNK         0.0754 
    127 H127       31.8224   -2.8102  -11.0956 H         1 UNK         0.0769 
    128 H128       30.6637   -1.5154  -11.3470 H         1 UNK         0.0769 
    129 H129       30.6493   -2.4250   -9.8418 H         1 UNK         0.0769 
    130 H130       33.9111    0.1930   -8.4376 H         1 UNK         0.2981 
    131 H131       35.6365   -2.0451   -7.8592 H         1 UNK         0.0541 
    132 H132       37.0145    1.6202   -8.0264 H         1 UNK         0.3459 
    133 H133       35.4844    1.1532   -8.7116 H         1 UNK         0.3459 
    134 H134       35.4711   -2.1064   -5.4578 H         1 UNK         0.0612 
    135 H135       33.9225   -2.4648   -6.1290 H         1 UNK         0.0612 
    136 H136       31.6921    0.4697   -4.8325 H         1 UNK         0.0624 
    137 H137       32.0339   -0.1827   -6.4109 H         1 UNK         0.0624 
@<TRIPOS>BOND
     1    1    2 1    
     2    1   72 1    
     3    1   73 1    
     4    1   74 1    
     5    2    3 2    
     6    2    4 am   BACKBONE|DICT|INTERRES
     7    4    5 1    
     8    4   75 1    
     9    5    6 1    
    10    5   35 1    
    11    5   76 1    
    12    6    7 1    
    13    6   77 1    
    14    6   78 1    
    15    7    8 1    
    16    8    9 1    
    17    8   79 1    
    18    8   80 1    
    19    9   10 ar   
    20    9   14 ar   
    21   10   11 ar   
    22   10   81 1    
    23   11   12 ar   
    24   11   71 1    
    25   12   13 ar   
    26   12   82 1    
    27   13   14 ar   
    28   13   15 1    
    29   14   83 1    
    30   15   16 1    
    31   15   84 1    
    32   15   85 1    
    33   16   17 1    
    34   17   18 1    
    35   17   86 1    
    36   17   87 1    
    37   18   19 1    
    38   18   37 1    
    39   18   88 1    
    40   19   20 am   BACKBONE|DICT|INTERRES
    41   19   89 1    
    42   20   21 2    
    43   20   22 1    
    44   22   23 1    
    45   22   24 1    
    46   22   90 1    
    47   23   91 1    
    48   23   92 1    
    49   23   93 1    
    50   24   25 am   BACKBONE|DICT|INTERRES
    51   24   94 1    
    52   25   26 2    
    53   25   27 1    
    54   27   28 1    
    55   27   29 1    
    56   27   95 1    
    57   28   96 1    
    58   28   97 1    
    59   28   98 1    
    60   29   30 am   BACKBONE|DICT|INTERRES
    61   29   99 1    
    62   30   31 2    
    63   30   32 1    
    64   32   33 1    
    65   32   34 1    
    66   32  100 1    
    67   33  101 1    
    68   33  102 1    
    69   33  103 1    
    70   34   35 am   BACKBONE|DICT|INTERRES
    71   34  104 1    
    72   35   36 2    
    73   37   38 2    
    74   37   39 am   BACKBONE|DICT|INTERRES
    75   39   40 1    
    76   39  105 1    
    77   40   41 1    
    78   40   42 1    
    79   40  106 1    
    80   41  107 1    
    81   41  108 1    
    82   41  109 1    
    83   42   43 2    
    84   42   44 am   BACKBONE|DICT|INTERRES
    85   44   45 1    
    86   44  110 1    
    87   45   46 1    
    88   45   47 1    
    89   45  111 1    
    90   46  112 1    
    91   46  113 1    
    92   46  114 1    
    93   47   48 2    
    94   47   49 am   BACKBONE|DICT|INTERRES
    95   49   50 1    
    96   49  115 1    
    97   50   51 1    
    98   50   52 1    
    99   50  116 1    
   100   51  117 1    
   101   51  118 1    
   102   51  119 1    
   103   52   53 2    
   104   52   54 am   BACKBONE|DICT|INTERRES
   105   54   55 1    
   106   54  120 1    
   107   55   56 1    
   108   55   57 1    
   109   55  121 1    
   110   56  122 1    
   111   56  123 1    
   112   56  124 1    
   113   57   58 2    
   114   57   59 am   BACKBONE|DICT|INTERRES
   115   59   60 1    
   116   59  125 1    
   117   60   61 1    
   118   60   62 1    
   119   60  126 1    
   120   61  127 1    
   121   61  128 1    
   122   61  129 1    
   123   62   63 2    
   124   62   64 am   BACKBONE|DICT|INTERRES
   125   64   65 1    
   126   64  130 1    
   127   65   66 1    
   128   65   69 1    
   129   65  131 1    
   130   66   67 am   BACKBONE|DICT|INTERRES
   131   66   68 2    
   132   67  132 1    
   133   67  133 1    
   134   69   70 1    
   135   69  134 1    
   136   69  135 1    
   137   70   71 1    
   138   71  136 1    
   139   71  137 1    
@<TRIPOS>SUBSTRUCTURE
     1 UNK         1 GROUP             0       ****    0 ROOT    
