@<TRIPOS>MOLECULE
3R137
137   139    1
SMALL
USER_CHARGES


@<TRIPOS>ATOM
      1 CA         29.9195    1.6448   -2.5446 C.3       0 UNK        -0.2020 
      2 C          29.1115    0.3627   -2.4157 C.2       0 UNK         0.4855 
      3 O          28.2284    0.1153   -3.2339 O.2       0 UNK        -0.5197 
      4 N          29.4095   -0.4565   -1.3988 N.am      1 UNK        -0.4892 
      5 CA         28.7209   -1.7208   -1.1180 C.3       1 UNK         0.0835 
      6 C6         29.4902   -2.5534   -0.0567 C.3       12 UNK        -0.0855 
      7 S7         29.2739   -4.3501   -0.2910 S.3       12 UNK        -0.2931 
      8 C8         30.8084   -4.7921   -1.1745 C.3       12 UNK         0.0378 
      9 C9         30.8726   -4.1206   -2.5379 C.ar      12 UNK        -0.0802 
     10 C10        31.6773   -2.9939   -2.7379 C.ar      12 UNK        -0.0944 
     11 C11        31.6766   -2.3307   -3.9687 C.ar      12 UNK        -0.0787 
     12 C12        30.8690   -2.8086   -5.0043 C.ar      12 UNK        -0.0862 
     13 C13        30.0641   -3.9360   -4.8169 C.ar      12 UNK        -0.0733 
     14 C14        30.0830   -4.5984   -3.5871 C.ar      12 UNK        -0.0832 
     15 C15        29.1290   -4.4024   -5.9241 C.3       12 UNK         0.0240 
     16 S16        27.3784   -4.1168   -5.4988 S.3       12 UNK        -0.2522 
     17 C17        27.3325   -2.3073   -5.2618 C.3       12 UNK        -0.0967 
     18 CA         26.6125   -1.5709   -6.4106 C.3       5 UNK         0.0660 
     19 N          25.2002   -1.9512   -6.5093 N.am      5 UNK        -0.4015 
     20 C          24.3553   -1.5337   -7.4632 C.2       4 UNK         0.4946 
     21 O          24.6950   -0.8189   -8.4070 O.2       4 UNK        -0.5353 
     22 CA         22.8744   -1.9336   -7.3303 C.3       4 UNK         0.0277 
     23 CB         22.5562   -3.1149   -8.2609 C.3       4 UNK        -0.1981 
     24 N          22.4364   -2.2615   -5.9678 N.am      4 UNK        -0.4209 
     25 C          22.5093   -1.4556   -4.8979 C.2       3 UNK         0.4942 
     26 O          23.0151   -0.3315   -4.9239 O.2       3 UNK        -0.5208 
     27 CA         21.9328   -1.9867   -3.5692 C.3       3 UNK         0.0250 
     28 CB         21.4226   -3.4462   -3.6304 C.3       3 UNK        -0.1990 
     29 N          22.8745   -1.8215   -2.4555 N.am      3 UNK        -0.4232 
     30 C          24.1156   -2.3218   -2.3729 C.2       2 UNK         0.4993 
     31 O          24.6477   -3.0120   -3.2467 O.2       2 UNK        -0.5286 
     32 CA         24.8753   -2.0238   -1.0754 C.3       2 UNK         0.0209 
     33 CB         24.4339   -2.9726    0.0540 C.3       2 UNK        -0.1931 
     34 N          26.3093   -2.1768   -1.3073 N.am      2 UNK        -0.4546 
     35 C          27.2595   -1.4647   -0.6925 C.2       1 UNK         0.5154 
     36 O          27.0259   -0.6321    0.1886 O.2       1 UNK        -0.5181 
     37 C          26.8200   -0.0487   -6.2648 C.2       5 UNK         0.5014 
     38 O          27.8487    0.4529   -6.7173 O.2       5 UNK        -0.5248 
     39 N          25.8413    0.6697   -5.6902 N.am      6 UNK        -0.4434 
     40 CA         25.8791    2.1247   -5.5161 C.3       6 UNK         0.0363 
     41 CB         24.6964    2.5586   -4.6360 C.3       6 UNK        -0.1936 
     42 C          25.8897    2.9161   -6.8395 C.2       6 UNK         0.5081 
     43 O          26.2822    4.0831   -6.8339 O.2       6 UNK        -0.5248 
     44 N          25.4692    2.2827   -7.9443 N.am      7 UNK        -0.4718 
     45 CA         25.5095    2.8537   -9.2909 C.3       7 UNK         0.0273 
     46 CB         24.3869    2.2212  -10.1306 C.3       7 UNK        -0.1935 
     47 C          26.8717    2.6709   -9.9883 C.2       7 UNK         0.5018 
     48 O          27.0882    3.3005  -11.0254 O.2       7 UNK        -0.5186 
     49 N          27.7540    1.8133   -9.4524 N.am      8 UNK        -0.4240 
     50 CA         29.0745    1.5386  -10.0232 C.3       8 UNK         0.0235 
     51 CB         29.5620    0.1613   -9.5432 C.3       8 UNK        -0.2000 
     52 C          30.0838    2.6327   -9.6406 C.2       8 UNK         0.4941 
     53 O          30.0030    3.1911   -8.5441 O.2       8 UNK        -0.5273 
     54 N          31.0395    2.8953  -10.5418 N.am      9 UNK        -0.4262 
     55 CA         32.1167    3.8724  -10.3442 C.3       9 UNK         0.0264 
     56 CB         32.7080    4.2539  -11.7116 C.3       9 UNK        -0.1955 
     57 C          33.2291    3.3786   -9.3997 C.2       9 UNK         0.5031 
     58 O          33.9301    4.2050   -8.8134 O.2       9 UNK        -0.5390 
     59 N          33.3790    2.0559   -9.2750 N.am      10 UNK        -0.4204 
     60 CA         34.3459    1.3661   -8.4272 C.3       10 UNK         0.0237 
     61 CB         35.7280    1.3455   -9.1086 C.3       10 UNK        -0.1985 
     62 C          33.8291   -0.0554   -8.1769 C.2       10 UNK         0.4970 
     63 O          32.9329   -0.5111   -8.8935 O.2       10 UNK        -0.4914 
     64 N          34.3984   -0.7270   -7.1705 N.am      11 UNK        -0.4285 
     65 CA         34.0648   -2.1121   -6.8080 C.3       11 UNK         0.1007 
     66 C          34.4904   -3.1451   -7.8885 C.2       11 UNK         0.5703 
     67 N          33.7867   -4.2652   -7.9861 N.am      11 UNK        -0.7361 
     68 O          35.4721   -2.9608   -8.6064 O.2       11 UNK        -0.4986 
     69 C69        34.6366   -2.5081   -5.4197 C.3       12 UNK        -0.0947 
     70 S70        34.2910   -1.3438   -4.0536 S.3       12 UNK        -0.2240 
     71 C71        32.4941   -1.0601   -4.1596 C.3       12 UNK         0.0194 
     72 H72        29.2690    2.5105   -2.4228 H         1 UNK         0.0906 
     73 H73        30.7124    1.7057   -1.7994 H         1 UNK         0.0906 
     74 H74        30.3770    1.6995   -3.5322 H         1 UNK         0.0906 
     75 H75        30.1137   -0.1809   -0.7299 H         1 UNK         0.3140 
     76 H76        28.7111   -2.2743   -2.0603 H         1 UNK         0.1085 
     77 H77        29.1896   -2.2882    0.9592 H         1 UNK         0.0836 
     78 H78        30.5584   -2.3365   -0.0992 H         1 UNK         0.0836 
     79 H79        30.8481   -5.8752   -1.2994 H         1 UNK         0.0731 
     80 H80        31.6731   -4.5227   -0.5658 H         1 UNK         0.0731 
     81 H81        32.2837   -2.6118   -1.9282 H         1 UNK         0.1312 
     82 H82        30.8321   -2.2791   -5.9462 H         1 UNK         0.1406 
     83 H83        29.4431   -5.4567   -3.4307 H         1 UNK         0.1631 
     84 H84        29.2824   -5.4676   -6.1019 H         1 UNK         0.0717 
     85 H85        29.3536   -3.8972   -6.8649 H         1 UNK         0.0717 
     86 H86        26.8453   -2.0952   -4.3097 H         1 UNK         0.0934 
     87 H87        28.3461   -1.9237   -5.1509 H         1 UNK         0.0934 
     88 H88        27.0878   -1.8603   -7.3504 H         1 UNK         0.0739 
     89 H89        24.8441   -2.5291   -5.7593 H         1 UNK         0.3093 
     90 H90        22.2862   -1.0736   -7.6572 H         1 UNK         0.0818 
     91 H91        22.8446   -2.8909   -9.2892 H         1 UNK         0.0819 
     92 H92        23.0898   -4.0185   -7.9630 H         1 UNK         0.0819 
     93 H93        21.4895   -3.3399   -8.2693 H         1 UNK         0.0819 
     94 H94        22.0213   -3.1730   -5.8389 H         1 UNK         0.3041 
     95 H95        21.0766   -1.3495   -3.3428 H         1 UNK         0.0784 
     96 H96        20.6248   -3.5604   -4.3654 H         1 UNK         0.0793 
     97 H97        22.2166   -4.1509   -3.8815 H         1 UNK         0.0793 
     98 H98        21.0083   -3.7528   -2.6698 H         1 UNK         0.0793 
     99 H99        22.5410   -1.2459   -1.6947 H         1 UNK         0.3024 
    100 H100       24.6608   -0.9908   -0.7905 H         1 UNK         0.1171 
    101 H101       24.9535   -2.7485    0.9859 H         1 UNK         0.0786 
    102 H102       23.3649   -2.8824    0.2511 H         1 UNK         0.0786 
    103 H103       24.6336   -4.0151   -0.1975 H         1 UNK         0.0786 
    104 H104       26.5464   -2.8155   -2.0566 H         1 UNK         0.2977 
    105 H105       24.9996    0.1981   -5.3739 H         1 UNK         0.3127 
    106 H106       26.8043    2.3658   -4.9878 H         1 UNK         0.0770 
    107 H107       23.7398    2.3441   -5.1142 H         1 UNK         0.0814 
    108 H108       24.7293    3.6308   -4.4378 H         1 UNK         0.0814 
    109 H109       24.7111    2.0499   -3.6718 H         1 UNK         0.0814 
    110 H110       25.1750    1.3153   -7.8727 H         1 UNK         0.2983 
    111 H111       25.3197    3.9278   -9.2296 H         1 UNK         0.0947 
    112 H112       24.5373    1.1493  -10.2639 H         1 UNK         0.0806 
    113 H113       24.3428    2.6689  -11.1244 H         1 UNK         0.0806 
    114 H114       23.4115    2.3685   -9.6667 H         1 UNK         0.0806 
    115 H115       27.5575    1.3957   -8.5489 H         1 UNK         0.3000 
    116 H116       28.9806    1.5055  -11.1111 H         1 UNK         0.0850 
    117 H117       30.4683   -0.1365  -10.0714 H         1 UNK         0.0810 
    118 H118       28.8154   -0.6127   -9.7219 H         1 UNK         0.0810 
    119 H119       29.7964    0.1621   -8.4779 H         1 UNK         0.0810 
    120 H120       31.0358    2.3959  -11.4203 H         1 UNK         0.3040 
    121 H121       31.6869    4.7724   -9.8986 H         1 UNK         0.0766 
    122 H122       31.9485    4.6778  -12.3690 H         1 UNK         0.0812 
    123 H123       33.1497    3.3938  -12.2166 H         1 UNK         0.0812 
    124 H124       33.4926    5.0040  -11.6012 H         1 UNK         0.0812 
    125 H125       32.7323    1.4330   -9.7436 H         1 UNK         0.3205 
    126 H126       34.4121    1.8827   -7.4671 H         1 UNK         0.0754 
    127 H127       36.4651    0.8291   -8.4926 H         1 UNK         0.0769 
    128 H128       36.1033    2.3547   -9.2792 H         1 UNK         0.0769 
    129 H129       35.6923    0.8352  -10.0721 H         1 UNK         0.0769 
    130 H130       35.1414   -0.2973   -6.6401 H         1 UNK         0.2981 
    131 H131       32.9784   -2.1613   -6.7519 H         1 UNK         0.0541 
    132 H132       34.0575   -4.9535   -8.6708 H         1 UNK         0.3459 
    133 H133       32.9933   -4.4383   -7.3894 H         1 UNK         0.3459 
    134 H134       34.2515   -3.4852   -5.1218 H         1 UNK         0.0612 
    135 H135       35.7210   -2.6182   -5.4786 H         1 UNK         0.0612 
    136 H136       32.2148   -0.3476   -3.3826 H         1 UNK         0.0624 
    137 H137       32.2564   -0.5751   -5.1072 H         1 UNK         0.0624 
@<TRIPOS>BOND
     1    1    2 1    
     2    1   72 1    
     3    1   73 1    
     4    1   74 1    
     5    2    3 2    
     6    2    4 am   BACKBONE|DICT|INTERRES
     7    4    5 1    
     8    4   75 1    
     9    5    6 1    
    10    5   35 1    
    11    5   76 1    
    12    6    7 1    
    13    6   77 1    
    14    6   78 1    
    15    7    8 1    
    16    8    9 1    
    17    8   79 1    
    18    8   80 1    
    19    9   10 ar   
    20    9   14 ar   
    21   10   11 ar   
    22   10   81 1    
    23   11   12 ar   
    24   11   71 1    
    25   12   13 ar   
    26   12   82 1    
    27   13   14 ar   
    28   13   15 1    
    29   14   83 1    
    30   15   16 1    
    31   15   84 1    
    32   15   85 1    
    33   16   17 1    
    34   17   18 1    
    35   17   86 1    
    36   17   87 1    
    37   18   19 1    
    38   18   37 1    
    39   18   88 1    
    40   19   20 am   BACKBONE|DICT|INTERRES
    41   19   89 1    
    42   20   21 2    
    43   20   22 1    
    44   22   23 1    
    45   22   24 1    
    46   22   90 1    
    47   23   91 1    
    48   23   92 1    
    49   23   93 1    
    50   24   25 am   BACKBONE|DICT|INTERRES
    51   24   94 1    
    52   25   26 2    
    53   25   27 1    
    54   27   28 1    
    55   27   29 1    
    56   27   95 1    
    57   28   96 1    
    58   28   97 1    
    59   28   98 1    
    60   29   30 am   BACKBONE|DICT|INTERRES
    61   29   99 1    
    62   30   31 2    
    63   30   32 1    
    64   32   33 1    
    65   32   34 1    
    66   32  100 1    
    67   33  101 1    
    68   33  102 1    
    69   33  103 1    
    70   34   35 am   BACKBONE|DICT|INTERRES
    71   34  104 1    
    72   35   36 2    
    73   37   38 2    
    74   37   39 am   BACKBONE|DICT|INTERRES
    75   39   40 1    
    76   39  105 1    
    77   40   41 1    
    78   40   42 1    
    79   40  106 1    
    80   41  107 1    
    81   41  108 1    
    82   41  109 1    
    83   42   43 2    
    84   42   44 am   BACKBONE|DICT|INTERRES
    85   44   45 1    
    86   44  110 1    
    87   45   46 1    
    88   45   47 1    
    89   45  111 1    
    90   46  112 1    
    91   46  113 1    
    92   46  114 1    
    93   47   48 2    
    94   47   49 am   BACKBONE|DICT|INTERRES
    95   49   50 1    
    96   49  115 1    
    97   50   51 1    
    98   50   52 1    
    99   50  116 1    
   100   51  117 1    
   101   51  118 1    
   102   51  119 1    
   103   52   53 2    
   104   52   54 am   BACKBONE|DICT|INTERRES
   105   54   55 1    
   106   54  120 1    
   107   55   56 1    
   108   55   57 1    
   109   55  121 1    
   110   56  122 1    
   111   56  123 1    
   112   56  124 1    
   113   57   58 2    
   114   57   59 am   BACKBONE|DICT|INTERRES
   115   59   60 1    
   116   59  125 1    
   117   60   61 1    
   118   60   62 1    
   119   60  126 1    
   120   61  127 1    
   121   61  128 1    
   122   61  129 1    
   123   62   63 2    
   124   62   64 am   BACKBONE|DICT|INTERRES
   125   64   65 1    
   126   64  130 1    
   127   65   66 1    
   128   65   69 1    
   129   65  131 1    
   130   66   67 am   BACKBONE|DICT|INTERRES
   131   66   68 2    
   132   67  132 1    
   133   67  133 1    
   134   69   70 1    
   135   69  134 1    
   136   69  135 1    
   137   70   71 1    
   138   71  136 1    
   139   71  137 1    
@<TRIPOS>SUBSTRUCTURE
     1 UNK         1 GROUP             0       ****    0 ROOT    
