@<TRIPOS>MOLECULE
3R137
137   139    1
SMALL
USER_CHARGES


@<TRIPOS>ATOM
      1 CA         25.2190   -4.0268    2.6321 C.3       0 UNK        -0.2020 
      2 C          25.8572   -5.1399    1.8043 C.2       0 UNK         0.4855 
      3 O          25.4389   -6.2896    1.9233 O.2       0 UNK        -0.5197 
      4 N          26.8703   -4.8709    0.9665 N.am      1 UNK        -0.4892 
      5 CA         27.4506   -3.5588    0.6491 C.3       1 UNK         0.0835 
      6 C6         28.7774   -3.7265   -0.1346 C.3       12 UNK        -0.0855 
      7 S7         29.8156   -2.2247   -0.1850 S.3       12 UNK        -0.2931 
      8 C8         29.3152   -1.4264   -1.7470 C.3       12 UNK         0.0378 
      9 C9         29.8956   -2.1045   -2.9812 C.ar      12 UNK        -0.0802 
     10 C10        31.0947   -1.6459   -3.5315 C.ar      12 UNK        -0.0944 
     11 C11        31.6109   -2.2193   -4.6983 C.ar      12 UNK        -0.0787 
     12 C12        30.9401   -3.2974   -5.2882 C.ar      12 UNK        -0.0862 
     13 C13        29.7532   -3.7857   -4.7310 C.ar      12 UNK        -0.0733 
     14 C14        29.2210   -3.1615   -3.5987 C.ar      12 UNK        -0.0832 
     15 C15        29.0789   -5.0269   -5.3066 C.3       12 UNK         0.0240 
     16 S16        28.0895   -4.6991   -6.7992 S.3       12 UNK        -0.2522 
     17 C17        26.7257   -3.6755   -6.1444 C.3       12 UNK        -0.0967 
     18 CA         26.4835   -2.3889   -6.9689 C.3       5 UNK         0.0660 
     19 N          25.2962   -1.6631   -6.5173 N.am      5 UNK        -0.4015 
     20 C          24.6754   -0.7122   -7.2317 C.2       4 UNK         0.4946 
     21 O          24.9944   -0.3967   -8.3779 O.2       4 UNK        -0.5353 
     22 CA         23.5330    0.0458   -6.5339 C.3       4 UNK         0.0277 
     23 CB         22.2074   -0.7183   -6.6797 C.3       4 UNK        -0.1981 
     24 N          23.8053    0.2961   -5.1160 N.am      4 UNK        -0.4209 
     25 C          24.7994    1.0748   -4.6639 C.2       3 UNK         0.4942 
     26 O          25.5397    1.7276   -5.3979 O.2       3 UNK        -0.5208 
     27 CA         25.0408    1.0947   -3.1445 C.3       3 UNK         0.0250 
     28 CB         24.2772    2.2589   -2.4943 C.3       3 UNK        -0.1990 
     29 N          24.6882   -0.1611   -2.4714 N.am      3 UNK        -0.4232 
     30 C          25.2788   -1.3422   -2.7005 C.2       2 UNK         0.4993 
     31 O          26.1722   -1.5112   -3.5344 O.2       2 UNK        -0.5286 
     32 CA         24.7402   -2.5487   -1.9119 C.3       2 UNK         0.0209 
     33 CB         24.1038   -3.5700   -2.8698 C.3       2 UNK        -0.1931 
     34 N          25.7756   -3.2158   -1.1179 N.am      2 UNK        -0.4546 
     35 C          26.4392   -2.6583   -0.0939 C.2       1 UNK         0.5154 
     36 O          26.2401   -1.5107    0.3055 O.2       1 UNK        -0.5181 
     37 C          27.7064   -1.4531   -7.0081 C.2       5 UNK         0.5014 
     38 O          28.4324   -1.4701   -8.0013 O.2       5 UNK        -0.5248 
     39 N          27.8766   -0.6125   -5.9751 N.am      6 UNK        -0.4434 
     40 CA         28.9290    0.4077   -5.9186 C.3       6 UNK         0.0363 
     41 CB         28.8789    1.1523   -4.5759 C.3       6 UNK        -0.1936 
     42 C          28.8548    1.4034   -7.0885 C.2       6 UNK         0.5081 
     43 O          29.8756    1.6773   -7.7199 O.2       6 UNK        -0.5248 
     44 N          27.6397    1.8869   -7.3834 N.am      7 UNK        -0.4718 
     45 CA         27.3392    2.7635   -8.5164 C.3       7 UNK         0.0273 
     46 CB         25.8871    3.2560   -8.4135 C.3       7 UNK        -0.1935 
     47 C          27.5941    2.0994   -9.8801 C.2       7 UNK         0.5018 
     48 O          28.1411    2.7532  -10.7685 O.2       7 UNK        -0.5186 
     49 N          27.2133    0.8205  -10.0194 N.am      8 UNK        -0.4240 
     50 CA         27.4512    0.0149  -11.2204 C.3       8 UNK         0.0235 
     51 CB         26.6343   -1.2853  -11.1490 C.3       8 UNK        -0.2000 
     52 C          28.9416   -0.2891  -11.4483 C.2       8 UNK         0.4941 
     53 O          29.4101   -0.1870  -12.5830 O.2       8 UNK        -0.5273 
     54 N          29.6581   -0.6473  -10.3735 N.am      9 UNK        -0.4262 
     55 CA         31.0987   -0.9095  -10.3796 C.3       9 UNK         0.0264 
     56 CB         31.4971   -1.5976   -9.0623 C.3       9 UNK        -0.1955 
     57 C          31.9432    0.3576  -10.5930 C.2       9 UNK         0.5031 
     58 O          33.0139    0.2656  -11.1951 O.2       9 UNK        -0.5390 
     59 N          31.4600    1.4990  -10.0770 N.am      10 UNK        -0.4204 
     60 CA         32.1206    2.8101  -10.0304 C.3       10 UNK         0.0237 
     61 CB         32.3270    3.3856  -11.4477 C.3       10 UNK        -0.1985 
     62 C          33.4103    2.7898   -9.1841 C.2       10 UNK         0.4970 
     63 O          34.3612    3.5148   -9.4837 O.2       10 UNK        -0.4914 
     64 N          33.4161    1.9437   -8.1481 N.am      11 UNK        -0.4285 
     65 CA         34.5085    1.7660   -7.1863 C.3       11 UNK         0.1007 
     66 C          34.6503    2.9525   -6.1909 C.2       11 UNK         0.5703 
     67 N          35.8008    3.0777   -5.5423 N.am      11 UNK        -0.7361 
     68 O          33.7342    3.7477   -5.9859 O.2       11 UNK        -0.4986 
     69 C69        34.4005    0.3902   -6.4727 C.3       12 UNK        -0.0947 
     70 S70        32.7772    0.0901   -5.6965 S.3       12 UNK        -0.2240 
     71 C71        32.9018   -1.6835   -5.3048 C.3       12 UNK         0.0194 
     72 H72        25.9641   -3.3567    3.0584 H         1 UNK         0.0906 
     73 H73        24.5271   -3.4445    2.0243 H         1 UNK         0.0906 
     74 H74        24.6539   -4.4507    3.4621 H         1 UNK         0.0906 
     75 H75        27.2707   -5.6482    0.4602 H         1 UNK         0.3140 
     76 H76        27.6937   -3.0674    1.5932 H         1 UNK         0.1085 
     77 H77        29.3860   -4.4859    0.3597 H         1 UNK         0.0836 
     78 H78        28.6030   -4.1190   -1.1333 H         1 UNK         0.0836 
     79 H79        29.6514   -0.3894   -1.7088 H         1 UNK         0.0731 
     80 H80        28.2305   -1.3775   -1.8220 H         1 UNK         0.0731 
     81 H81        31.6173   -0.8215   -3.0658 H         1 UNK         0.1312 
     82 H82        31.3452   -3.7671   -6.1740 H         1 UNK         0.1406 
     83 H83        28.2820   -3.5068   -3.1920 H         1 UNK         0.1631 
     84 H84        28.4437   -5.5008   -4.5565 H         1 UNK         0.0717 
     85 H85        29.8441   -5.7633   -5.5560 H         1 UNK         0.0717 
     86 H86        25.8246   -4.2906   -6.1521 H         1 UNK         0.0934 
     87 H87        26.9065   -3.4323   -5.0992 H         1 UNK         0.0934 
     88 H88        26.2914   -2.7008   -7.9980 H         1 UNK         0.0739 
     89 H89        25.0204   -1.8094   -5.5570 H         1 UNK         0.3093 
     90 H90        23.4276    1.0128   -7.0306 H         1 UNK         0.0818 
     91 H91        21.3749   -0.1518   -6.2619 H         1 UNK         0.0819 
     92 H92        21.9773   -0.8999   -7.7306 H         1 UNK         0.0819 
     93 H93        22.2388   -1.6879   -6.1811 H         1 UNK         0.0819 
     94 H94        23.2274   -0.1849   -4.4425 H         1 UNK         0.3041 
     95 H95        26.1090    1.2592   -2.9888 H         1 UNK         0.0784 
     96 H96        24.5422    3.2082   -2.9625 H         1 UNK         0.0793 
     97 H97        23.1972    2.1390   -2.5891 H         1 UNK         0.0793 
     98 H98        24.5149    2.3466   -1.4338 H         1 UNK         0.0793 
     99 H99        23.9671   -0.1043   -1.7663 H         1 UNK         0.3024 
    100 H100       23.9677   -2.2030   -1.2213 H         1 UNK         0.1171 
    101 H101       23.6459   -4.3945   -2.3227 H         1 UNK         0.0786 
    102 H102       23.3189   -3.1094   -3.4714 H         1 UNK         0.0786 
    103 H103       24.8373   -3.9923   -3.5577 H         1 UNK         0.0786 
    104 H104       25.9860   -4.1721   -1.3623 H         1 UNK         0.2977 
    105 H105       27.2571   -0.6895   -5.1760 H         1 UNK         0.3127 
    106 H106       29.8804   -0.1212   -5.9851 H         1 UNK         0.0770 
    107 H107       28.0278    1.8298   -4.5135 H         1 UNK         0.0814 
    108 H108       29.7803    1.7503   -4.4366 H         1 UNK         0.0814 
    109 H109       28.8119    0.4616   -3.7395 H         1 UNK         0.0814 
    110 H110       26.8634    1.6510   -6.7690 H         1 UNK         0.2983 
    111 H111       28.0000    3.6302   -8.4452 H         1 UNK         0.0947 
    112 H112       25.6443    3.9326   -9.2340 H         1 UNK         0.0806 
    113 H113       25.7182    3.7990   -7.4834 H         1 UNK         0.0806 
    114 H114       25.1772    2.4289   -8.4495 H         1 UNK         0.0806 
    115 H115       26.7208    0.3697   -9.2548 H         1 UNK         0.3000 
    116 H116       27.0968    0.5881  -12.0799 H         1 UNK         0.0850 
    117 H117       26.7790   -1.8872  -12.0470 H         1 UNK         0.0810 
    118 H118       25.5672   -1.0783  -11.0654 H         1 UNK         0.0810 
    119 H119       26.9233   -1.8980  -10.2948 H         1 UNK         0.0810 
    120 H120       29.1755   -0.7828   -9.4843 H         1 UNK         0.3040 
    121 H121       31.3144   -1.5943  -11.2024 H         1 UNK         0.0766 
    122 H122       31.2570   -0.9789   -8.1965 H         1 UNK         0.0812 
    123 H123       32.5681   -1.8023   -9.0317 H         1 UNK         0.0812 
    124 H124       30.9796   -2.5494   -8.9401 H         1 UNK         0.0812 
    125 H125       30.6113    1.4378   -9.5195 H         1 UNK         0.3205 
    126 H126       31.4294    3.4715   -9.5058 H         1 UNK         0.0754 
    127 H127       32.6780    4.4172  -11.4031 H         1 UNK         0.0769 
    128 H128       31.3946    3.3852  -12.0127 H         1 UNK         0.0769 
    129 H129       33.0640    2.8164  -12.0147 H         1 UNK         0.0769 
    130 H130       32.5682    1.4369   -7.9370 H         1 UNK         0.2981 
    131 H131       35.4329    1.7506   -7.7673 H         1 UNK         0.0541 
    132 H132       36.5600    2.4323   -5.6953 H         1 UNK         0.3459 
    133 H133       35.9125    3.8355   -4.8870 H         1 UNK         0.3459 
    134 H134       35.1807    0.2744   -5.7185 H         1 UNK         0.0612 
    135 H135       34.5739   -0.4018   -7.2030 H         1 UNK         0.0612 
    136 H136       33.7217   -1.8413   -4.6030 H         1 UNK         0.0624 
    137 H137       33.1545   -2.2296   -6.2150 H         1 UNK         0.0624 
@<TRIPOS>BOND
     1    1    2 1    
     2    1   72 1    
     3    1   73 1    
     4    1   74 1    
     5    2    3 2    
     6    2    4 am   BACKBONE|DICT|INTERRES
     7    4    5 1    
     8    4   75 1    
     9    5    6 1    
    10    5   35 1    
    11    5   76 1    
    12    6    7 1    
    13    6   77 1    
    14    6   78 1    
    15    7    8 1    
    16    8    9 1    
    17    8   79 1    
    18    8   80 1    
    19    9   10 ar   
    20    9   14 ar   
    21   10   11 ar   
    22   10   81 1    
    23   11   12 ar   
    24   11   71 1    
    25   12   13 ar   
    26   12   82 1    
    27   13   14 ar   
    28   13   15 1    
    29   14   83 1    
    30   15   16 1    
    31   15   84 1    
    32   15   85 1    
    33   16   17 1    
    34   17   18 1    
    35   17   86 1    
    36   17   87 1    
    37   18   19 1    
    38   18   37 1    
    39   18   88 1    
    40   19   20 am   BACKBONE|DICT|INTERRES
    41   19   89 1    
    42   20   21 2    
    43   20   22 1    
    44   22   23 1    
    45   22   24 1    
    46   22   90 1    
    47   23   91 1    
    48   23   92 1    
    49   23   93 1    
    50   24   25 am   BACKBONE|DICT|INTERRES
    51   24   94 1    
    52   25   26 2    
    53   25   27 1    
    54   27   28 1    
    55   27   29 1    
    56   27   95 1    
    57   28   96 1    
    58   28   97 1    
    59   28   98 1    
    60   29   30 am   BACKBONE|DICT|INTERRES
    61   29   99 1    
    62   30   31 2    
    63   30   32 1    
    64   32   33 1    
    65   32   34 1    
    66   32  100 1    
    67   33  101 1    
    68   33  102 1    
    69   33  103 1    
    70   34   35 am   BACKBONE|DICT|INTERRES
    71   34  104 1    
    72   35   36 2    
    73   37   38 2    
    74   37   39 am   BACKBONE|DICT|INTERRES
    75   39   40 1    
    76   39  105 1    
    77   40   41 1    
    78   40   42 1    
    79   40  106 1    
    80   41  107 1    
    81   41  108 1    
    82   41  109 1    
    83   42   43 2    
    84   42   44 am   BACKBONE|DICT|INTERRES
    85   44   45 1    
    86   44  110 1    
    87   45   46 1    
    88   45   47 1    
    89   45  111 1    
    90   46  112 1    
    91   46  113 1    
    92   46  114 1    
    93   47   48 2    
    94   47   49 am   BACKBONE|DICT|INTERRES
    95   49   50 1    
    96   49  115 1    
    97   50   51 1    
    98   50   52 1    
    99   50  116 1    
   100   51  117 1    
   101   51  118 1    
   102   51  119 1    
   103   52   53 2    
   104   52   54 am   BACKBONE|DICT|INTERRES
   105   54   55 1    
   106   54  120 1    
   107   55   56 1    
   108   55   57 1    
   109   55  121 1    
   110   56  122 1    
   111   56  123 1    
   112   56  124 1    
   113   57   58 2    
   114   57   59 am   BACKBONE|DICT|INTERRES
   115   59   60 1    
   116   59  125 1    
   117   60   61 1    
   118   60   62 1    
   119   60  126 1    
   120   61  127 1    
   121   61  128 1    
   122   61  129 1    
   123   62   63 2    
   124   62   64 am   BACKBONE|DICT|INTERRES
   125   64   65 1    
   126   64  130 1    
   127   65   66 1    
   128   65   69 1    
   129   65  131 1    
   130   66   67 am   BACKBONE|DICT|INTERRES
   131   66   68 2    
   132   67  132 1    
   133   67  133 1    
   134   69   70 1    
   135   69  134 1    
   136   69  135 1    
   137   70   71 1    
   138   71  136 1    
   139   71  137 1    
@<TRIPOS>SUBSTRUCTURE
     1 UNK         1 GROUP             0       ****    0 ROOT    
