@<TRIPOS>MOLECULE
3R137
137   139    1
SMALL
USER_CHARGES


@<TRIPOS>ATOM
      1 CA         27.0599   -6.5156    0.4274 C.3       0 UNK        -0.2020 
      2 C          27.3593   -5.5148   -0.6788 C.2       0 UNK         0.4855 
      3 O          27.9888   -4.4895   -0.4206 O.2       0 UNK        -0.5197 
      4 N          26.9100   -5.8033   -1.9037 N.am      1 UNK        -0.4892 
      5 CA         27.0434   -4.9529   -3.0868 C.3       1 UNK         0.0835 
      6 C6         28.4700   -4.9974   -3.7144 C.3       12 UNK        -0.0855 
      7 S7         29.0735   -3.3265   -4.1413 S.3       12 UNK        -0.2931 
      8 C8         30.3369   -3.1168   -2.8463 C.3       12 UNK         0.0378 
      9 C9         30.8014   -1.6750   -2.7156 C.ar      12 UNK        -0.0802 
     10 C10        31.9164   -1.2228   -3.4275 C.ar      12 UNK        -0.0944 
     11 C11        32.3805    0.0859   -3.2592 C.ar      12 UNK        -0.0787 
     12 C12        31.7132    0.9480   -2.3861 C.ar      12 UNK        -0.0862 
     13 C13        30.5912    0.5102   -1.6770 C.ar      12 UNK        -0.0733 
     14 C14        30.1426   -0.8043   -1.8415 C.ar      12 UNK        -0.0832 
     15 C15        29.8759    1.4565   -0.7229 C.3       12 UNK         0.0240 
     16 S16        28.2015    1.8853   -1.2948 S.3       12 UNK        -0.2522 
     17 C17        28.5234    2.6098   -2.9408 C.3       12 UNK        -0.0967 
     18 CA         28.1067    1.6424   -4.0860 C.3       5 UNK         0.0660 
     19 N          26.6867    1.2683   -4.0139 N.am      5 UNK        -0.4015 
     20 C          25.6236    2.0613   -4.2020 C.2       4 UNK         0.4946 
     21 O          25.6861    3.1876   -4.6999 O.2       4 UNK        -0.5353 
     22 CA         24.2614    1.5085   -3.7306 C.3       4 UNK         0.0277 
     23 CB         23.2081    2.6226   -3.5795 C.3       4 UNK        -0.1981 
     24 N          23.7155    0.4653   -4.6015 N.am      4 UNK        -0.4209 
     25 C          24.2097   -0.7695   -4.7436 C.2       3 UNK         0.4942 
     26 O          25.2194   -1.1727   -4.1550 O.2       3 UNK        -0.5208 
     27 CA         23.4526   -1.7135   -5.6927 C.3       3 UNK         0.0250 
     28 CB         23.2211   -1.0844   -7.0842 C.3       3 UNK        -0.1990 
     29 N          24.2491   -2.9291   -5.7992 N.am      3 UNK        -0.4232 
     30 C          23.9368   -4.0873   -6.3874 C.2       2 UNK         0.4993 
     31 O          22.8551   -4.3192   -6.9282 O.2       2 UNK        -0.5286 
     32 CA         25.0291   -5.1721   -6.3784 C.3       2 UNK         0.0209 
     33 CB         25.7143   -5.2544   -7.7528 C.3       2 UNK        -0.1931 
     34 N          26.0473   -4.9414   -5.3438 N.am      2 UNK        -0.4546 
     35 C          25.9064   -5.3140   -4.0646 C.2       1 UNK         0.5154 
     36 O          24.9195   -5.9284   -3.6476 O.2       1 UNK        -0.5181 
     37 C          28.4922    2.1562   -5.4881 C.2       5 UNK         0.5014 
     38 O          28.7572    1.3473   -6.3789 O.2       5 UNK        -0.5248 
     39 N          28.4647    3.4813   -5.6905 N.am      6 UNK        -0.4434 
     40 CA         28.6645    4.1364   -6.9866 C.3       6 UNK         0.0363 
     41 CB         28.6897    5.6598   -6.7869 C.3       6 UNK        -0.1936 
     42 C          27.6101    3.7473   -8.0409 C.2       6 UNK         0.5081 
     43 O          27.9164    3.7815   -9.2322 O.2       6 UNK        -0.5248 
     44 N          26.4075    3.3521   -7.5944 N.am      7 UNK        -0.4718 
     45 CA         25.3589    2.7898   -8.4495 C.3       7 UNK         0.0273 
     46 CB         24.0176    2.8140   -7.7006 C.3       7 UNK        -0.1935 
     47 C          25.6797    1.3635   -8.9345 C.2       7 UNK         0.5018 
     48 O          25.2062    0.9792  -10.0041 O.2       7 UNK        -0.5186 
     49 N          26.4682    0.6068   -8.1547 N.am      8 UNK        -0.4240 
     50 CA         26.9797   -0.7115   -8.5397 C.3       8 UNK         0.0235 
     51 CB         27.3224   -1.5365   -7.2863 C.3       8 UNK        -0.2000 
     52 C          28.2148   -0.5795   -9.4395 C.2       8 UNK         0.4941 
     53 O          28.3486   -1.3419  -10.3965 O.2       8 UNK        -0.5273 
     54 N          29.0908    0.3803   -9.0998 N.am      9 UNK        -0.4262 
     55 CA         30.3596    0.7043   -9.7637 C.3       9 UNK         0.0264 
     56 CB         30.1223    1.2220  -11.1979 C.3       9 UNK        -0.1955 
     57 C          31.3885   -0.4427   -9.6984 C.2       9 UNK         0.5031 
     58 O          32.2501   -0.5528  -10.5726 O.2       9 UNK        -0.5390 
     59 N          31.3054   -1.2568   -8.6362 N.am      10 UNK        -0.4204 
     60 CA         32.2066   -2.3768   -8.3433 C.3       10 UNK         0.0237 
     61 CB         31.5508   -3.2601   -7.2671 C.3       10 UNK        -0.1985 
     62 C          33.6161   -1.9387   -7.8970 C.2       10 UNK         0.4970 
     63 O          34.5094   -2.7812   -7.8057 O.2       10 UNK        -0.4914 
     64 N          33.7793   -0.6438   -7.6049 N.am      11 UNK        -0.4285 
     65 CA         34.9955   -0.0089   -7.0819 C.3       11 UNK         0.1007 
     66 C          36.1854    0.0697   -8.0818 C.2       11 UNK         0.5703 
     67 N          35.9864   -0.1688   -9.3730 N.am      11 UNK        -0.7361 
     68 O          37.3103    0.3499   -7.6746 O.2       11 UNK        -0.4986 
     69 C69        34.6900    1.3902   -6.4711 C.3       12 UNK        -0.0947 
     70 S70        33.1367    1.4680   -5.5107 S.3       12 UNK        -0.2240 
     71 C71        33.6112    0.5654   -4.0091 C.3       12 UNK         0.0194 
     72 H72        26.5012   -7.3761    0.0595 H         1 UNK         0.0906 
     73 H73        27.9891   -6.8778    0.8666 H         1 UNK         0.0906 
     74 H74        26.4734   -6.0414    1.2138 H         1 UNK         0.0906 
     75 H75        26.3230   -6.6153   -2.0548 H         1 UNK         0.3140 
     76 H76        26.8230   -3.9330   -2.7611 H         1 UNK         0.1085 
     77 H77        29.1774   -5.4527   -3.0194 H         1 UNK         0.0836 
     78 H78        28.5198   -5.6356   -4.5987 H         1 UNK         0.0836 
     79 H79        29.9369   -3.4515   -1.8886 H         1 UNK         0.0731 
     80 H80        31.1849   -3.7676   -3.0654 H         1 UNK         0.0731 
     81 H81        32.4319   -1.8941   -4.1008 H         1 UNK         0.1312 
     82 H82        32.0716    1.9608   -2.2605 H         1 UNK         0.1406 
     83 H83        29.2796   -1.1497   -1.2876 H         1 UNK         0.1631 
     84 H84        30.4478    2.3751   -0.5816 H         1 UNK         0.0717 
     85 H85        29.8039    0.9879    0.2596 H         1 UNK         0.0717 
     86 H86        27.9683    3.5477   -2.9951 H         1 UNK         0.0934 
     87 H87        29.5789    2.8763   -3.0212 H         1 UNK         0.0934 
     88 H88        28.6658    0.7147   -3.9525 H         1 UNK         0.0739 
     89 H89        26.4980    0.3145   -3.7214 H         1 UNK         0.3093 
     90 H90        24.4196    1.0735   -2.7411 H         1 UNK         0.0818 
     91 H91        22.2837    2.2407   -3.1458 H         1 UNK         0.0819 
     92 H92        23.5692    3.4135   -2.9206 H         1 UNK         0.0819 
     93 H93        22.9650    3.0846   -4.5373 H         1 UNK         0.0819 
     94 H94        22.8855    0.7116   -5.1205 H         1 UNK         0.3041 
     95 H95        22.4938   -1.9616   -5.2336 H         1 UNK         0.0784 
     96 H96        22.6334   -0.1683   -7.0247 H         1 UNK         0.0793 
     97 H97        24.1619   -0.8417   -7.5742 H         1 UNK         0.0793 
     98 H98        22.6747   -1.7593   -7.7426 H         1 UNK         0.0793 
     99 H99        25.1335   -2.8531   -5.3107 H         1 UNK         0.3024 
    100 H100       24.5350   -6.1284   -6.1897 H         1 UNK         0.1171 
    101 H101       24.9902   -5.4933   -8.5331 H         1 UNK         0.0786 
    102 H102       26.4766   -6.0335   -7.7717 H         1 UNK         0.0786 
    103 H103       26.1870   -4.3126   -8.0300 H         1 UNK         0.0786 
    104 H104       26.8888   -4.4538   -5.6198 H         1 UNK         0.2977 
    105 H105       28.1614    4.0730   -4.9305 H         1 UNK         0.3127 
    106 H106       29.6383    3.8227   -7.3689 H         1 UNK         0.0770 
    107 H107       27.7459    6.0296   -6.3840 H         1 UNK         0.0814 
    108 H108       28.8636    6.1738   -7.7334 H         1 UNK         0.0814 
    109 H109       29.4876    5.9588   -6.1070 H         1 UNK         0.0814 
    110 H110       26.2231    3.3777   -6.5942 H         1 UNK         0.2983 
    111 H111       25.2650    3.4231   -9.3347 H         1 UNK         0.0947 
    112 H112       23.2080    2.4577   -8.3391 H         1 UNK         0.0806 
    113 H113       23.7586    3.8231   -7.3797 H         1 UNK         0.0806 
    114 H114       24.0395    2.1771   -6.8179 H         1 UNK         0.0806 
    115 H115       26.8658    1.0191   -7.3205 H         1 UNK         0.3000 
    116 H116       26.2079   -1.2465   -9.0978 H         1 UNK         0.0850 
    117 H117       27.6594   -2.5364   -7.5598 H         1 UNK         0.0810 
    118 H118       28.1187   -1.0885   -6.6933 H         1 UNK         0.0810 
    119 H119       26.4579   -1.6471   -6.6380 H         1 UNK         0.0810 
    120 H120       28.9039    0.8967   -8.2431 H         1 UNK         0.3040 
    121 H121       30.7921    1.5253   -9.1899 H         1 UNK         0.0766 
    122 H122       29.3989    2.0377  -11.2081 H         1 UNK         0.0812 
    123 H123       29.7531    0.4363  -11.8575 H         1 UNK         0.0812 
    124 H124       31.0461    1.6039  -11.6342 H         1 UNK         0.0812 
    125 H125       30.5694   -1.0829   -7.9670 H         1 UNK         0.3205 
    126 H126       32.3233   -2.9684   -9.2537 H         1 UNK         0.0754 
    127 H127       32.1701   -4.1291   -7.0404 H         1 UNK         0.0769 
    128 H128       30.5807   -3.6344   -7.5956 H         1 UNK         0.0769 
    129 H129       31.4000   -2.7158   -6.3338 H         1 UNK         0.0769 
    130 H130       32.9830   -0.0328   -7.6958 H         1 UNK         0.2981 
    131 H131       35.3468   -0.6496   -6.2718 H         1 UNK         0.0541 
    132 H132       36.7645   -0.1182  -10.0113 H         1 UNK         0.3459 
    133 H133       35.0651   -0.3971   -9.7138 H         1 UNK         0.3459 
    134 H134       34.6056    2.1361   -7.2637 H         1 UNK         0.0612 
    135 H135       35.5141    1.7171   -5.8345 H         1 UNK         0.0612 
    136 H136       34.2159    1.2137   -3.3732 H         1 UNK         0.0624 
    137 H137       34.2390   -0.2878   -4.2663 H         1 UNK         0.0624 
@<TRIPOS>BOND
     1    1    2 1    
     2    1   72 1    
     3    1   73 1    
     4    1   74 1    
     5    2    3 2    
     6    2    4 am   BACKBONE|DICT|INTERRES
     7    4    5 1    
     8    4   75 1    
     9    5    6 1    
    10    5   35 1    
    11    5   76 1    
    12    6    7 1    
    13    6   77 1    
    14    6   78 1    
    15    7    8 1    
    16    8    9 1    
    17    8   79 1    
    18    8   80 1    
    19    9   10 ar   
    20    9   14 ar   
    21   10   11 ar   
    22   10   81 1    
    23   11   12 ar   
    24   11   71 1    
    25   12   13 ar   
    26   12   82 1    
    27   13   14 ar   
    28   13   15 1    
    29   14   83 1    
    30   15   16 1    
    31   15   84 1    
    32   15   85 1    
    33   16   17 1    
    34   17   18 1    
    35   17   86 1    
    36   17   87 1    
    37   18   19 1    
    38   18   37 1    
    39   18   88 1    
    40   19   20 am   BACKBONE|DICT|INTERRES
    41   19   89 1    
    42   20   21 2    
    43   20   22 1    
    44   22   23 1    
    45   22   24 1    
    46   22   90 1    
    47   23   91 1    
    48   23   92 1    
    49   23   93 1    
    50   24   25 am   BACKBONE|DICT|INTERRES
    51   24   94 1    
    52   25   26 2    
    53   25   27 1    
    54   27   28 1    
    55   27   29 1    
    56   27   95 1    
    57   28   96 1    
    58   28   97 1    
    59   28   98 1    
    60   29   30 am   BACKBONE|DICT|INTERRES
    61   29   99 1    
    62   30   31 2    
    63   30   32 1    
    64   32   33 1    
    65   32   34 1    
    66   32  100 1    
    67   33  101 1    
    68   33  102 1    
    69   33  103 1    
    70   34   35 am   BACKBONE|DICT|INTERRES
    71   34  104 1    
    72   35   36 2    
    73   37   38 2    
    74   37   39 am   BACKBONE|DICT|INTERRES
    75   39   40 1    
    76   39  105 1    
    77   40   41 1    
    78   40   42 1    
    79   40  106 1    
    80   41  107 1    
    81   41  108 1    
    82   41  109 1    
    83   42   43 2    
    84   42   44 am   BACKBONE|DICT|INTERRES
    85   44   45 1    
    86   44  110 1    
    87   45   46 1    
    88   45   47 1    
    89   45  111 1    
    90   46  112 1    
    91   46  113 1    
    92   46  114 1    
    93   47   48 2    
    94   47   49 am   BACKBONE|DICT|INTERRES
    95   49   50 1    
    96   49  115 1    
    97   50   51 1    
    98   50   52 1    
    99   50  116 1    
   100   51  117 1    
   101   51  118 1    
   102   51  119 1    
   103   52   53 2    
   104   52   54 am   BACKBONE|DICT|INTERRES
   105   54   55 1    
   106   54  120 1    
   107   55   56 1    
   108   55   57 1    
   109   55  121 1    
   110   56  122 1    
   111   56  123 1    
   112   56  124 1    
   113   57   58 2    
   114   57   59 am   BACKBONE|DICT|INTERRES
   115   59   60 1    
   116   59  125 1    
   117   60   61 1    
   118   60   62 1    
   119   60  126 1    
   120   61  127 1    
   121   61  128 1    
   122   61  129 1    
   123   62   63 2    
   124   62   64 am   BACKBONE|DICT|INTERRES
   125   64   65 1    
   126   64  130 1    
   127   65   66 1    
   128   65   69 1    
   129   65  131 1    
   130   66   67 am   BACKBONE|DICT|INTERRES
   131   66   68 2    
   132   67  132 1    
   133   67  133 1    
   134   69   70 1    
   135   69  134 1    
   136   69  135 1    
   137   70   71 1    
   138   71  136 1    
   139   71  137 1    
@<TRIPOS>SUBSTRUCTURE
     1 UNK         1 GROUP             0       ****    0 ROOT    
