@<TRIPOS>MOLECULE
3R137
137   139    1
SMALL
USER_CHARGES


@<TRIPOS>ATOM
      1 CA         30.1045    1.0823   -1.6496 C.3       0 UNK        -0.2020 
      2 C          29.6165   -0.3106   -2.0117 C.2       0 UNK         0.4855 
      3 O          29.1716   -0.5408   -3.1354 O.2       0 UNK        -0.5197 
      4 N          29.6817   -1.2423   -1.0533 N.am      1 UNK        -0.4892 
      5 CA         29.1575   -2.6060   -1.1681 C.3       1 UNK         0.0835 
      6 C6         29.9489   -3.5753   -0.2518 C.3       12 UNK        -0.0855 
      7 S7         29.5956   -5.3355   -0.5856 S.3       12 UNK        -0.2931 
      8 C8         31.0149   -5.8245   -1.6203 C.3       12 UNK         0.0378 
      9 C9         30.9706   -5.1964   -3.0076 C.ar      12 UNK        -0.0802 
     10 C10        32.0385   -4.4189   -3.4675 C.ar      12 UNK        -0.0944 
     11 C11        32.0141   -3.8598   -4.7509 C.ar      12 UNK        -0.0787 
     12 C12        30.9048   -4.0845   -5.5723 C.ar      12 UNK        -0.0862 
     13 C13        29.8309   -4.8613   -5.1255 C.ar      12 UNK        -0.0733 
     14 C14        29.8745   -5.4209   -3.8463 C.ar      12 UNK        -0.0832 
     15 C15        28.6291   -5.1140   -6.0274 C.3       12 UNK         0.0240 
     16 S16        27.1451   -4.2291   -5.4501 S.3       12 UNK        -0.2522 
     17 C17        27.6487   -2.4954   -5.6871 C.3       12 UNK        -0.0967 
     18 CA         26.7800   -1.7551   -6.7309 C.3       5 UNK         0.0660 
     19 N          25.3738   -1.6493   -6.3434 N.am      5 UNK        -0.4015 
     20 C          24.3642   -1.4346   -7.1990 C.2       4 UNK         0.4946 
     21 O          24.4974   -1.3990   -8.4226 O.2       4 UNK        -0.5353 
     22 CA         22.9650   -1.2123   -6.5957 C.3       4 UNK         0.0277 
     23 CB         22.1938   -2.5404   -6.5277 C.3       4 UNK        -0.1981 
     24 N          22.9968   -0.6025   -5.2640 N.am      4 UNK        -0.4209 
     25 C          23.3902    0.6538   -5.0074 C.2       3 UNK         0.4942 
     26 O          23.7164    1.4632   -5.8756 O.2       3 UNK        -0.5208 
     27 CA         23.4857    1.0525   -3.5221 C.3       3 UNK         0.0250 
     28 CB         22.1336    1.5797   -3.0158 C.3       3 UNK        -0.1990 
     29 N          23.9528   -0.0333   -2.6467 N.am      3 UNK        -0.4232 
     30 C          25.1326   -0.6532   -2.7837 C.2       2 UNK         0.4993 
     31 O          25.9373   -0.3857   -3.6788 O.2       2 UNK        -0.5286 
     32 CA         25.4482   -1.7953   -1.8135 C.3       2 UNK         0.0209 
     33 CB         24.7001   -3.0797   -2.2159 C.3       2 UNK        -0.1931 
     34 N          26.8876   -2.0299   -1.8577 N.am      2 UNK        -0.4546 
     35 C          27.6359   -2.5786   -0.8977 C.2       1 UNK         0.5154 
     36 O          27.1776   -2.9829    0.1732 O.2       1 UNK        -0.5181 
     37 C          27.3444   -0.3521   -6.9896 C.2       5 UNK         0.5014 
     38 O          27.8454   -0.0973   -8.0833 O.2       5 UNK        -0.5248 
     39 N          27.2287    0.5362   -5.9918 N.am      6 UNK        -0.4434 
     40 CA         27.7899    1.8916   -5.9694 C.3       6 UNK         0.0363 
     41 CB         27.4216    2.5570   -4.6345 C.3       6 UNK        -0.1936 
     42 C          27.3748    2.7907   -7.1485 C.2       6 UNK         0.5081 
     43 O          28.1076    3.7194   -7.4887 O.2       6 UNK        -0.5248 
     44 N          26.2217    2.4924   -7.7584 N.am      7 UNK        -0.4718 
     45 CA         25.7085    3.1429   -8.9613 C.3       7 UNK         0.0273 
     46 CB         24.2348    2.7409   -9.1402 C.3       7 UNK        -0.1935 
     47 C          26.5026    2.8394  -10.2490 C.2       7 UNK         0.5018 
     48 O          26.3403    3.5898  -11.2132 O.2       7 UNK        -0.5186 
     49 N          27.3055    1.7623  -10.2805 N.am      8 UNK        -0.4240 
     50 CA         27.9875    1.3017  -11.4982 C.3       8 UNK         0.0235 
     51 CB         27.0945    0.2815  -12.2275 C.3       8 UNK        -0.2000 
     52 C          29.3915    0.7184  -11.2707 C.2       8 UNK         0.4941 
     53 O          30.2377    0.8602  -12.1557 O.2       8 UNK        -0.5273 
     54 N          29.6244    0.0483  -10.1359 N.am      9 UNK        -0.4262 
     55 CA         30.8935   -0.5984   -9.7974 C.3       9 UNK         0.0264 
     56 CB         30.6380   -1.6569   -8.7087 C.3       9 UNK        -0.1955 
     57 C          31.9427    0.4136   -9.3134 C.2       9 UNK         0.5031 
     58 O          31.5953    1.5206   -8.8943 O.2       9 UNK        -0.5390 
     59 N          33.2110   -0.0216   -9.3045 N.am      10 UNK        -0.4204 
     60 CA         34.3696    0.7367   -8.8109 C.3       10 UNK         0.0237 
     61 CB         35.6497   -0.0762   -9.0655 C.3       10 UNK        -0.1985 
     62 C          34.2814    1.1466   -7.3268 C.2       10 UNK         0.4970 
     63 O          34.9266    2.1194   -6.9344 O.2       10 UNK        -0.4914 
     64 N          33.4757    0.4182   -6.5432 N.am      11 UNK        -0.4285 
     65 CA         33.0965    0.7692   -5.1679 C.3       11 UNK         0.1007 
     66 C          32.1433    1.9977   -5.0595 C.2       11 UNK         0.5703 
     67 N          31.5354    2.4831   -6.1367 N.am      11 UNK        -0.7361 
     68 O          31.9743    2.5410   -3.9716 O.2       11 UNK        -0.4986 
     69 C69        32.5284   -0.4566   -4.4043 C.3       12 UNK        -0.0947 
     70 S70        33.7804   -1.7584   -4.1593 S.3       12 UNK        -0.2240 
     71 C71        33.2092   -3.0739   -5.2836 C.3       12 UNK         0.0194 
     72 H72        29.8067    1.8029   -2.4106 H         1 UNK         0.0906 
     73 H73        29.6856    1.4068   -0.6975 H         1 UNK         0.0906 
     74 H74        31.1913    1.1004   -1.5748 H         1 UNK         0.0906 
     75 H75        30.0333   -0.9859   -0.1412 H         1 UNK         0.3140 
     76 H76        29.2981   -2.9433   -2.1984 H         1 UNK         0.1085 
     77 H77        29.7452   -3.3712    0.8011 H         1 UNK         0.0836 
     78 H78        31.0200   -3.4106   -0.3806 H         1 UNK         0.0836 
     79 H79        31.9423   -5.5743   -1.1024 H         1 UNK         0.0731 
     80 H80        31.0101   -6.9098   -1.7292 H         1 UNK         0.0731 
     81 H81        32.8994   -4.2588   -2.8329 H         1 UNK         0.1312 
     82 H82        30.8826   -3.6684   -6.5693 H         1 UNK         0.1406 
     83 H83        29.0479   -6.0264   -3.4990 H         1 UNK         0.1631 
     84 H84        28.4152   -6.1834   -6.0500 H         1 UNK         0.0717 
     85 H85        28.8435   -4.8234   -7.0571 H         1 UNK         0.0717 
     86 H86        27.6109   -2.0042   -4.7163 H         1 UNK         0.0934 
     87 H87        28.6965   -2.4581   -5.9862 H         1 UNK         0.0934 
     88 H88        26.8407   -2.3112   -7.6693 H         1 UNK         0.0739 
     89 H89        25.1929   -1.6032   -5.3506 H         1 UNK         0.3093 
     90 H90        22.4255   -0.5355   -7.2620 H         1 UNK         0.0818 
     91 H91        21.1724   -2.3898   -6.1775 H         1 UNK         0.0819 
     92 H92        22.1308   -3.0047   -7.5130 H         1 UNK         0.0819 
     93 H93        22.6770   -3.2563   -5.8613 H         1 UNK         0.0819 
     94 H94        22.7346   -1.1892   -4.4855 H         1 UNK         0.3041 
     95 H95        24.2138    1.8633   -3.4522 H         1 UNK         0.0784 
     96 H96        21.7766    2.3998   -3.6407 H         1 UNK         0.0793 
     97 H97        21.3662    0.8046   -3.0257 H         1 UNK         0.0793 
     98 H98        22.2125    1.9624   -1.9981 H         1 UNK         0.0793 
     99 H99        23.3353   -0.3098   -1.8963 H         1 UNK         0.3024 
    100 H100       25.1601   -1.4895   -0.8051 H         1 UNK         0.1171 
    101 H101       23.6197   -2.9329   -2.1945 H         1 UNK         0.0786 
    102 H102       24.9257   -3.8994   -1.5335 H         1 UNK         0.0786 
    103 H103       24.9687   -3.4033   -3.2225 H         1 UNK         0.0786 
    104 H104       27.3563   -1.5967   -2.6498 H         1 UNK         0.2977 
    105 H105       26.7851    0.2281   -5.1260 H         1 UNK         0.3127 
    106 H106       28.8741    1.7814   -6.0120 H         1 UNK         0.0770 
    107 H107       26.3433    2.6900   -4.5395 H         1 UNK         0.0814 
    108 H108       27.8847    3.5405   -4.5455 H         1 UNK         0.0814 
    109 H109       27.7595    1.9595   -3.7878 H         1 UNK         0.0814 
    110 H110       25.6638    1.7412   -7.3733 H         1 UNK         0.2983 
    111 H111       25.7530    4.2227   -8.8037 H         1 UNK         0.0947 
    112 H112       23.7978    3.2253  -10.0146 H         1 UNK         0.0806 
    113 H113       23.6363    3.0330   -8.2769 H         1 UNK         0.0806 
    114 H114       24.1255    1.6635   -9.2736 H         1 UNK         0.0806 
    115 H115       27.4111    1.1989   -9.4410 H         1 UNK         0.3000 
    116 H116       28.1368    2.1522  -12.1671 H         1 UNK         0.0850 
    117 H117       27.5787   -0.0900  -13.1318 H         1 UNK         0.0810 
    118 H118       26.1470    0.7282  -12.5294 H         1 UNK         0.0810 
    119 H119       26.8728   -0.5798  -11.5959 H         1 UNK         0.0810 
    120 H120       28.9022   -0.0002   -9.4176 H         1 UNK         0.3040 
    121 H121       31.2760   -1.0989  -10.6897 H         1 UNK         0.0766 
    122 H122       31.5316   -2.2531   -8.5222 H         1 UNK         0.0812 
    123 H123       29.8476   -2.3478   -9.0033 H         1 UNK         0.0812 
    124 H124       30.3456   -1.1998   -7.7622 H         1 UNK         0.0812 
    125 H125       33.4044   -0.9457   -9.6643 H         1 UNK         0.3205 
    126 H126       34.4267    1.6585   -9.3937 H         1 UNK         0.0754 
    127 H127       36.5335    0.4735   -8.7379 H         1 UNK         0.0769 
    128 H128       35.7811   -0.2906  -10.1264 H         1 UNK         0.0769 
    129 H129       35.6394   -1.0253   -8.5278 H         1 UNK         0.0769 
    130 H130       32.9889   -0.3625   -6.9517 H         1 UNK         0.2981 
    131 H131       34.0105    1.0737   -4.6542 H         1 UNK         0.0541 
    132 H132       31.6625    2.0701   -7.0562 H         1 UNK         0.3459 
    133 H133       30.9431    3.2910   -6.0376 H         1 UNK         0.3459 
    134 H134       31.6493   -0.8627   -4.9085 H         1 UNK         0.0612 
    135 H135       32.1977   -0.1628   -3.4085 H         1 UNK         0.0612 
    136 H136       32.9905   -2.6367   -6.2587 H         1 UNK         0.0624 
    137 H137       34.0329   -3.7713   -5.4400 H         1 UNK         0.0624 
@<TRIPOS>BOND
     1    1    2 1    
     2    1   72 1    
     3    1   73 1    
     4    1   74 1    
     5    2    3 2    
     6    2    4 am   BACKBONE|DICT|INTERRES
     7    4    5 1    
     8    4   75 1    
     9    5    6 1    
    10    5   35 1    
    11    5   76 1    
    12    6    7 1    
    13    6   77 1    
    14    6   78 1    
    15    7    8 1    
    16    8    9 1    
    17    8   79 1    
    18    8   80 1    
    19    9   10 ar   
    20    9   14 ar   
    21   10   11 ar   
    22   10   81 1    
    23   11   12 ar   
    24   11   71 1    
    25   12   13 ar   
    26   12   82 1    
    27   13   14 ar   
    28   13   15 1    
    29   14   83 1    
    30   15   16 1    
    31   15   84 1    
    32   15   85 1    
    33   16   17 1    
    34   17   18 1    
    35   17   86 1    
    36   17   87 1    
    37   18   19 1    
    38   18   37 1    
    39   18   88 1    
    40   19   20 am   BACKBONE|DICT|INTERRES
    41   19   89 1    
    42   20   21 2    
    43   20   22 1    
    44   22   23 1    
    45   22   24 1    
    46   22   90 1    
    47   23   91 1    
    48   23   92 1    
    49   23   93 1    
    50   24   25 am   BACKBONE|DICT|INTERRES
    51   24   94 1    
    52   25   26 2    
    53   25   27 1    
    54   27   28 1    
    55   27   29 1    
    56   27   95 1    
    57   28   96 1    
    58   28   97 1    
    59   28   98 1    
    60   29   30 am   BACKBONE|DICT|INTERRES
    61   29   99 1    
    62   30   31 2    
    63   30   32 1    
    64   32   33 1    
    65   32   34 1    
    66   32  100 1    
    67   33  101 1    
    68   33  102 1    
    69   33  103 1    
    70   34   35 am   BACKBONE|DICT|INTERRES
    71   34  104 1    
    72   35   36 2    
    73   37   38 2    
    74   37   39 am   BACKBONE|DICT|INTERRES
    75   39   40 1    
    76   39  105 1    
    77   40   41 1    
    78   40   42 1    
    79   40  106 1    
    80   41  107 1    
    81   41  108 1    
    82   41  109 1    
    83   42   43 2    
    84   42   44 am   BACKBONE|DICT|INTERRES
    85   44   45 1    
    86   44  110 1    
    87   45   46 1    
    88   45   47 1    
    89   45  111 1    
    90   46  112 1    
    91   46  113 1    
    92   46  114 1    
    93   47   48 2    
    94   47   49 am   BACKBONE|DICT|INTERRES
    95   49   50 1    
    96   49  115 1    
    97   50   51 1    
    98   50   52 1    
    99   50  116 1    
   100   51  117 1    
   101   51  118 1    
   102   51  119 1    
   103   52   53 2    
   104   52   54 am   BACKBONE|DICT|INTERRES
   105   54   55 1    
   106   54  120 1    
   107   55   56 1    
   108   55   57 1    
   109   55  121 1    
   110   56  122 1    
   111   56  123 1    
   112   56  124 1    
   113   57   58 2    
   114   57   59 am   BACKBONE|DICT|INTERRES
   115   59   60 1    
   116   59  125 1    
   117   60   61 1    
   118   60   62 1    
   119   60  126 1    
   120   61  127 1    
   121   61  128 1    
   122   61  129 1    
   123   62   63 2    
   124   62   64 am   BACKBONE|DICT|INTERRES
   125   64   65 1    
   126   64  130 1    
   127   65   66 1    
   128   65   69 1    
   129   65  131 1    
   130   66   67 am   BACKBONE|DICT|INTERRES
   131   66   68 2    
   132   67  132 1    
   133   67  133 1    
   134   69   70 1    
   135   69  134 1    
   136   69  135 1    
   137   70   71 1    
   138   71  136 1    
   139   71  137 1    
@<TRIPOS>SUBSTRUCTURE
     1 UNK         1 GROUP             0       ****    0 ROOT    
