@<TRIPOS>MOLECULE
3R137
137   139    1
SMALL
USER_CHARGES


@<TRIPOS>ATOM
      1 CA         26.4016   -6.0305   -6.9049 C.3       0 UNK        -0.2020 
      2 C          25.4153   -5.9236   -5.7514 C.2       0 UNK         0.4855 
      3 O          24.3629   -6.5608   -5.7804 O.2       0 UNK        -0.5197 
      4 N          25.7445   -5.1132   -4.7382 N.am      1 UNK        -0.4892 
      5 CA         24.9309   -4.8690   -3.5385 C.3       1 UNK         0.0835 
      6 C6         25.8043   -4.4694   -2.3164 C.3       12 UNK        -0.0855 
      7 S7         27.0966   -3.2263   -2.6773 S.3       12 UNK        -0.2931 
      8 C8         28.5770   -4.2840   -2.6286 C.3       12 UNK         0.0378 
      9 C9         29.8161   -3.5209   -3.0631 C.ar      12 UNK        -0.0802 
     10 C10        30.1724   -3.4722   -4.4134 C.ar      12 UNK        -0.0944 
     11 C11        31.3152   -2.7787   -4.8204 C.ar      12 UNK        -0.0787 
     12 C12        32.1038   -2.1273   -3.8662 C.ar      12 UNK        -0.0862 
     13 C13        31.7458   -2.1529   -2.5140 C.ar      12 UNK        -0.0733 
     14 C14        30.6099   -2.8670   -2.1171 C.ar      12 UNK        -0.0832 
     15 C15        32.5610   -1.3782   -1.4869 C.3       12 UNK         0.0240 
     16 S16        31.5632   -0.1075   -0.6377 S.3       12 UNK        -0.2522 
     17 C17        31.1995    1.0781   -1.9815 C.3       12 UNK        -0.0967 
     18 CA         29.9571    0.6970   -2.8358 C.3       5 UNK         0.0660 
     19 N          28.7616    0.3615   -2.0573 N.am      5 UNK        -0.4015 
     20 C          28.0063    1.1962   -1.3339 C.2       4 UNK         0.4946 
     21 O          28.2463    2.3937   -1.1657 O.2       4 UNK        -0.5353 
     22 CA         26.7315    0.5765   -0.7341 C.3       4 UNK         0.0277 
     23 CB         26.4525    1.1184    0.6793 C.3       4 UNK        -0.1981 
     24 N          25.5420    0.7804   -1.5699 N.am      4 UNK        -0.4209 
     25 C          25.4007    0.4211   -2.8536 C.2       3 UNK         0.4942 
     26 O          26.3006   -0.0486   -3.5552 O.2       3 UNK        -0.5208 
     27 CA         24.0113    0.5961   -3.4679 C.3       3 UNK         0.0250 
     28 CB         23.9228    1.8756   -4.3172 C.3       3 UNK        -0.1990 
     29 N          23.7675   -0.5847   -4.2861 N.am      3 UNK        -0.4232 
     30 C          22.5733   -1.0523   -4.6614 C.2       2 UNK         0.4993 
     31 O          21.5089   -0.4710   -4.4461 O.2       2 UNK        -0.5286 
     32 CA         22.5559   -2.4143   -5.3778 C.3       2 UNK         0.0209 
     33 CB         22.5764   -2.2348   -6.9045 C.3       2 UNK        -0.1931 
     34 N          23.6497   -3.3070   -4.9754 N.am      2 UNK        -0.4546 
     35 C          23.7543   -3.8922   -3.7719 C.2       1 UNK         0.5154 
     36 O          22.9435   -3.7059   -2.8628 O.2       1 UNK        -0.5181 
     37 C          29.6654    1.6993   -3.9733 C.2       5 UNK         0.5014 
     38 O          30.5209    2.5198   -4.3088 O.2       5 UNK        -0.5248 
     39 N          28.4706    1.5944   -4.5674 N.am      6 UNK        -0.4434 
     40 CA         28.0327    2.3745   -5.7238 C.3       6 UNK         0.0363 
     41 CB         27.3423    3.6660   -5.2452 C.3       6 UNK        -0.1936 
     42 C          27.1427    1.5267   -6.6481 C.2       6 UNK         0.5081 
     43 O          26.3468    2.0828   -7.4054 O.2       6 UNK        -0.5248 
     44 N          27.2750    0.1939   -6.5664 N.am      7 UNK        -0.4718 
     45 CA         26.4803   -0.7769   -7.3236 C.3       7 UNK         0.0273 
     46 CB         26.6814   -2.1713   -6.7080 C.3       7 UNK        -0.1935 
     47 C          26.7982   -0.7938   -8.8300 C.2       7 UNK         0.5018 
     48 O          25.9496   -1.2018   -9.6237 O.2       7 UNK        -0.5186 
     49 N          28.0020   -0.3421   -9.1901 N.am      8 UNK        -0.4240 
     50 CA         28.4938   -0.1450  -10.5458 C.3       8 UNK         0.0235 
     51 CB         29.0993   -1.4587  -11.0735 C.3       8 UNK        -0.2000 
     52 C          29.5488    0.9645  -10.4913 C.2       8 UNK         0.4941 
     53 O          30.0781    1.2488   -9.4132 O.2       8 UNK        -0.5273 
     54 N          29.8850    1.5387  -11.6545 N.am      9 UNK        -0.4262 
     55 CA         30.9243    2.5692  -11.8008 C.3       9 UNK         0.0264 
     56 CB         30.9482    3.0704  -13.2538 C.3       9 UNK        -0.1955 
     57 C          32.3277    2.1009  -11.3680 C.2       9 UNK         0.5031 
     58 O          33.1262    2.9167  -10.9052 O.2       9 UNK        -0.5390 
     59 N          32.5827    0.7902  -11.4851 N.am      10 UNK        -0.4204 
     60 CA         33.7929    0.1124  -11.0187 C.3       10 UNK         0.0237 
     61 CB         33.7990   -1.3247  -11.5662 C.3       10 UNK        -0.1985 
     62 C          33.9599    0.1003   -9.4864 C.2       10 UNK         0.4970 
     63 O          35.0817   -0.1068   -9.0215 O.2       10 UNK        -0.4914 
     64 N          32.8721    0.3087   -8.7293 N.am      11 UNK        -0.4285 
     65 CA         32.8933    0.3672   -7.2593 C.3       11 UNK         0.1007 
     66 C          33.4869    1.6844   -6.6811 C.2       11 UNK         0.5703 
     67 N          33.6773    2.7353   -7.4723 N.am      11 UNK        -0.7361 
     68 O          33.8049    1.7425   -5.4960 O.2       11 UNK        -0.4986 
     69 C69        31.5061    0.0623   -6.6340 C.3       12 UNK        -0.0947 
     70 S70        30.7541   -1.4940   -7.2188 S.3       12 UNK        -0.2240 
     71 C71        31.6968   -2.7455   -6.2922 C.3       12 UNK         0.0194 
     72 H72        26.7131   -7.0664   -7.0363 H         1 UNK         0.0906 
     73 H73        25.9346   -5.6956   -7.8307 H         1 UNK         0.0906 
     74 H74        27.2944   -5.4280   -6.7377 H         1 UNK         0.0906 
     75 H75        26.6188   -4.6068   -4.7577 H         1 UNK         0.3140 
     76 H76        24.4490   -5.8141   -3.2766 H         1 UNK         0.1085 
     77 H77        25.1908   -4.1000   -1.4922 H         1 UNK         0.0836 
     78 H78        26.2832   -5.3666   -1.9212 H         1 UNK         0.0836 
     79 H79        28.7099   -4.6736   -1.6179 H         1 UNK         0.0731 
     80 H80        28.4319   -5.1510   -3.2751 H         1 UNK         0.0731 
     81 H81        29.5597   -3.9727   -5.1505 H         1 UNK         0.1312 
     82 H82        32.9824   -1.5805   -4.1807 H         1 UNK         0.1406 
     83 H83        30.3303   -2.8893   -1.0722 H         1 UNK         0.1631 
     84 H84        33.4291   -0.9040   -1.9474 H         1 UNK         0.0717 
     85 H85        32.9487   -2.0765   -0.7441 H         1 UNK         0.0717 
     86 H86        31.0519    2.0598   -1.5280 H         1 UNK         0.0934 
     87 H87        32.0847    1.1692   -2.6144 H         1 UNK         0.0934 
     88 H88        30.1942   -0.2184   -3.3716 H         1 UNK         0.0739 
     89 H89        28.4288   -0.5864   -2.1750 H         1 UNK         0.3093 
     90 H90        26.8862   -0.5015   -0.6478 H         1 UNK         0.0818 
     91 H91        25.6200    0.5950    1.1497 H         1 UNK         0.0819 
     92 H92        27.3219    0.9870    1.3251 H         1 UNK         0.0819 
     93 H93        26.2161    2.1833    0.6655 H         1 UNK         0.0819 
     94 H94        24.7457    1.1886   -1.1021 H         1 UNK         0.3041 
     95 H95        23.2682    0.6348   -2.6683 H         1 UNK         0.0784 
     96 H96        22.9161    2.0224   -4.7086 H         1 UNK         0.0793 
     97 H97        24.1719    2.7575   -3.7260 H         1 UNK         0.0793 
     98 H98        24.6053    1.8412   -5.1657 H         1 UNK         0.0793 
     99 H99        24.5997   -1.1296   -4.4745 H         1 UNK         0.3024 
    100 H100       21.6147   -2.9000   -5.1088 H         1 UNK         0.1171 
    101 H101       23.5085   -1.7910   -7.2513 H         1 UNK         0.0786 
    102 H102       21.7646   -1.5834   -7.2314 H         1 UNK         0.0786 
    103 H103       22.4491   -3.1887   -7.4168 H         1 UNK         0.0786 
    104 H104       24.3373   -3.5435   -5.6742 H         1 UNK         0.2977 
    105 H105       27.7904    0.9288   -4.2008 H         1 UNK         0.3127 
    106 H106       28.9023    2.6510   -6.3242 H         1 UNK         0.0770 
    107 H107       26.4660    3.4491   -4.6350 H         1 UNK         0.0814 
    108 H108       27.0161    4.2774   -6.0873 H         1 UNK         0.0814 
    109 H109       28.0198    4.2768   -4.6484 H         1 UNK         0.0814 
    110 H110       27.9601   -0.1854   -5.9293 H         1 UNK         0.2983 
    111 H111       25.4314   -0.4950   -7.2169 H         1 UNK         0.0947 
    112 H112       26.0612   -2.9118   -7.2141 H         1 UNK         0.0806 
    113 H113       26.4130   -2.1801   -5.6515 H         1 UNK         0.0806 
    114 H114       27.7177   -2.5016   -6.7916 H         1 UNK         0.0806 
    115 H115       28.6284    0.0104   -8.4757 H         1 UNK         0.3000 
    116 H116       27.6731    0.1795  -11.1892 H         1 UNK         0.0850 
    117 H117       29.9343   -1.7926  -10.4555 H         1 UNK         0.0810 
    118 H118       28.3577   -2.2576  -11.0885 H         1 UNK         0.0810 
    119 H119       29.4686   -1.3442  -12.0931 H         1 UNK         0.0810 
    120 H120       29.4071    1.2529  -12.4978 H         1 UNK         0.3040 
    121 H121       30.6503    3.4059  -11.1545 H         1 UNK         0.0766 
    122 H122       29.9866    3.4941  -13.5443 H         1 UNK         0.0812 
    123 H123       31.1898    2.2703  -13.9547 H         1 UNK         0.0812 
    124 H124       31.6965    3.8537  -13.3835 H         1 UNK         0.0812 
    125 H125       31.8630    0.2059  -11.8837 H         1 UNK         0.3205 
    126 H126       34.6527    0.6427  -11.4335 H         1 UNK         0.0754 
    127 H127       34.7063   -1.8527  -11.2687 H         1 UNK         0.0769 
    128 H128       33.7643   -1.3359  -12.6559 H         1 UNK         0.0769 
    129 H129       32.9505   -1.9017  -11.1954 H         1 UNK         0.0769 
    130 H130       31.9764    0.5058   -9.1611 H         1 UNK         0.2981 
    131 H131       33.5692   -0.4192   -6.9199 H         1 UNK         0.0541 
    132 H132       34.0709    3.5778   -7.0847 H         1 UNK         0.3459 
    133 H133       33.4347    2.6944   -8.4515 H         1 UNK         0.3459 
    134 H134       30.8088    0.8705   -6.8595 H         1 UNK         0.0612 
    135 H135       31.5775    0.0273   -5.5474 H         1 UNK         0.0612 
    136 H136       31.5026   -3.7224   -6.7372 H         1 UNK         0.0624 
    137 H137       32.7662   -2.5694   -6.4119 H         1 UNK         0.0624 
@<TRIPOS>BOND
     1    1    2 1    
     2    1   72 1    
     3    1   73 1    
     4    1   74 1    
     5    2    3 2    
     6    2    4 am   BACKBONE|DICT|INTERRES
     7    4    5 1    
     8    4   75 1    
     9    5    6 1    
    10    5   35 1    
    11    5   76 1    
    12    6    7 1    
    13    6   77 1    
    14    6   78 1    
    15    7    8 1    
    16    8    9 1    
    17    8   79 1    
    18    8   80 1    
    19    9   10 ar   
    20    9   14 ar   
    21   10   11 ar   
    22   10   81 1    
    23   11   12 ar   
    24   11   71 1    
    25   12   13 ar   
    26   12   82 1    
    27   13   14 ar   
    28   13   15 1    
    29   14   83 1    
    30   15   16 1    
    31   15   84 1    
    32   15   85 1    
    33   16   17 1    
    34   17   18 1    
    35   17   86 1    
    36   17   87 1    
    37   18   19 1    
    38   18   37 1    
    39   18   88 1    
    40   19   20 am   BACKBONE|DICT|INTERRES
    41   19   89 1    
    42   20   21 2    
    43   20   22 1    
    44   22   23 1    
    45   22   24 1    
    46   22   90 1    
    47   23   91 1    
    48   23   92 1    
    49   23   93 1    
    50   24   25 am   BACKBONE|DICT|INTERRES
    51   24   94 1    
    52   25   26 2    
    53   25   27 1    
    54   27   28 1    
    55   27   29 1    
    56   27   95 1    
    57   28   96 1    
    58   28   97 1    
    59   28   98 1    
    60   29   30 am   BACKBONE|DICT|INTERRES
    61   29   99 1    
    62   30   31 2    
    63   30   32 1    
    64   32   33 1    
    65   32   34 1    
    66   32  100 1    
    67   33  101 1    
    68   33  102 1    
    69   33  103 1    
    70   34   35 am   BACKBONE|DICT|INTERRES
    71   34  104 1    
    72   35   36 2    
    73   37   38 2    
    74   37   39 am   BACKBONE|DICT|INTERRES
    75   39   40 1    
    76   39  105 1    
    77   40   41 1    
    78   40   42 1    
    79   40  106 1    
    80   41  107 1    
    81   41  108 1    
    82   41  109 1    
    83   42   43 2    
    84   42   44 am   BACKBONE|DICT|INTERRES
    85   44   45 1    
    86   44  110 1    
    87   45   46 1    
    88   45   47 1    
    89   45  111 1    
    90   46  112 1    
    91   46  113 1    
    92   46  114 1    
    93   47   48 2    
    94   47   49 am   BACKBONE|DICT|INTERRES
    95   49   50 1    
    96   49  115 1    
    97   50   51 1    
    98   50   52 1    
    99   50  116 1    
   100   51  117 1    
   101   51  118 1    
   102   51  119 1    
   103   52   53 2    
   104   52   54 am   BACKBONE|DICT|INTERRES
   105   54   55 1    
   106   54  120 1    
   107   55   56 1    
   108   55   57 1    
   109   55  121 1    
   110   56  122 1    
   111   56  123 1    
   112   56  124 1    
   113   57   58 2    
   114   57   59 am   BACKBONE|DICT|INTERRES
   115   59   60 1    
   116   59  125 1    
   117   60   61 1    
   118   60   62 1    
   119   60  126 1    
   120   61  127 1    
   121   61  128 1    
   122   61  129 1    
   123   62   63 2    
   124   62   64 am   BACKBONE|DICT|INTERRES
   125   64   65 1    
   126   64  130 1    
   127   65   66 1    
   128   65   69 1    
   129   65  131 1    
   130   66   67 am   BACKBONE|DICT|INTERRES
   131   66   68 2    
   132   67  132 1    
   133   67  133 1    
   134   69   70 1    
   135   69  134 1    
   136   69  135 1    
   137   70   71 1    
   138   71  136 1    
   139   71  137 1    
@<TRIPOS>SUBSTRUCTURE
     1 UNK         1 GROUP             0       ****    0 ROOT    
