@<TRIPOS>MOLECULE
3R137
137   139    1
SMALL
USER_CHARGES


@<TRIPOS>ATOM
      1 CA         26.8553   -6.6951   -1.4508 C.3       0 UNK        -0.2020 
      2 C          26.8412   -5.1746   -1.4627 C.2       0 UNK         0.4855 
      3 O          26.8939   -4.5755   -2.5346 O.2       0 UNK        -0.5197 
      4 N          26.7437   -4.5501   -0.2806 N.am      1 UNK        -0.4892 
      5 CA         26.7951   -3.1000   -0.0041 C.3       1 UNK         0.0835 
      6 C6         28.1097   -2.4192   -0.4711 C.3       12 UNK        -0.0855 
      7 S7         29.5947   -3.2176    0.2292 S.3       12 UNK        -0.2931 
      8 C8         30.9295   -2.2282   -0.5286 C.3       12 UNK         0.0378 
      9 C9         30.9632   -2.2553   -2.0570 C.ar      12 UNK        -0.0802 
     10 C10        31.4000   -1.1192   -2.7454 C.ar      12 UNK        -0.0944 
     11 C11        31.4485   -1.1069   -4.1414 C.ar      12 UNK        -0.0787 
     12 C12        31.0694   -2.2459   -4.8531 C.ar      12 UNK        -0.0862 
     13 C13        30.6099   -3.3851   -4.1856 C.ar      12 UNK        -0.0733 
     14 C14        30.5788   -3.3880   -2.7876 C.ar      12 UNK        -0.0832 
     15 C15        30.1536   -4.6232   -4.9536 C.3       12 UNK         0.0240 
     16 S16        29.1775   -4.2585   -6.4542 S.3       12 UNK        -0.2522 
     17 C17        27.6706   -3.4897   -5.7680 C.3       12 UNK        -0.0967 
     18 CA         27.2635   -2.2129   -6.5506 C.3       5 UNK         0.0660 
     19 N          25.8175   -1.9956   -6.5322 N.am      5 UNK        -0.4015 
     20 C          25.0350   -1.9381   -7.6189 C.2       4 UNK         0.4946 
     21 O          25.4147   -2.2244   -8.7548 O.2       4 UNK        -0.5353 
     22 CA         23.5745   -1.4776   -7.4315 C.3       4 UNK         0.0277 
     23 CB         22.6219   -2.6833   -7.4931 C.3       4 UNK        -0.1981 
     24 N          23.3186   -0.7341   -6.1948 N.am      4 UNK        -0.4209 
     25 C          23.9062    0.4146   -5.8291 C.2       3 UNK         0.4942 
     26 O          24.7160    1.0277   -6.5237 O.2       3 UNK        -0.5208 
     27 CA         23.5980    0.9221   -4.4090 C.3       3 UNK         0.0250 
     28 CB         22.4117    1.8982   -4.4366 C.3       3 UNK        -0.1990 
     29 N          23.3390   -0.1397   -3.4227 N.am      3 UNK        -0.4232 
     30 C          24.1508   -1.1738   -3.1541 C.2       2 UNK         0.4993 
     31 O          25.2063   -1.3916   -3.7556 O.2       2 UNK        -0.5286 
     32 CA         23.6694   -2.1727   -2.0940 C.3       2 UNK         0.0209 
     33 CB         22.7804   -3.2456   -2.7442 C.3       2 UNK        -0.1931 
     34 N          24.8107   -2.8311   -1.4607 N.am      2 UNK        -0.4546 
     35 C          25.5625   -2.3013   -0.4897 C.2       1 UNK         0.5154 
     36 O          25.3022   -1.2227    0.0466 O.2       1 UNK        -0.5181 
     37 C          27.9778   -0.9524   -6.0284 C.2       5 UNK         0.5014 
     38 O          28.8989   -0.4671   -6.6852 O.2       5 UNK        -0.5248 
     39 N          27.5289   -0.4241   -4.8787 N.am      6 UNK        -0.4434 
     40 CA         28.1682    0.6658   -4.1360 C.3       6 UNK         0.0363 
     41 CB         27.4499    0.8678   -2.7928 C.3       6 UNK        -0.1936 
     42 C          28.2950    1.9994   -4.8919 C.2       6 UNK         0.5081 
     43 O          29.2434    2.7389   -4.6288 O.2       6 UNK        -0.5248 
     44 N          27.3592    2.2881   -5.8051 N.am      7 UNK        -0.4718 
     45 CA         27.3632    3.4920   -6.6417 C.3       7 UNK         0.0273 
     46 CB         26.0083    4.2068   -6.4838 C.3       7 UNK        -0.1935 
     47 C          27.6596    3.1730   -8.1191 C.2       7 UNK         0.5018 
     48 O          27.5070    4.0606   -8.9608 O.2       7 UNK        -0.5186 
     49 N          28.0523    1.9291   -8.4261 N.am      8 UNK        -0.4240 
     50 CA         28.3210    1.4585   -9.7844 C.3       8 UNK         0.0235 
     51 CB         27.8781   -0.0113   -9.8881 C.3       8 UNK        -0.2000 
     52 C          29.8043    1.6051  -10.1553 C.2       8 UNK         0.4941 
     53 O          30.6491    1.8997   -9.3031 O.2       8 UNK        -0.5273 
     54 N          30.1052    1.3142  -11.4296 N.am      9 UNK        -0.4262 
     55 CA         31.4465    1.2950  -12.0322 C.3       9 UNK         0.0264 
     56 CB         31.3084    1.0376  -13.5424 C.3       9 UNK        -0.1955 
     57 C          32.4380    0.2943  -11.4001 C.2       9 UNK         0.5031 
     58 O          33.6278    0.3517  -11.7137 O.2       9 UNK        -0.5390 
     59 N          31.9475   -0.5764  -10.5056 N.am      10 UNK        -0.4204 
     60 CA         32.7330   -1.4201   -9.6040 C.3       10 UNK         0.0237 
     61 CB         31.7759   -2.2956   -8.7785 C.3       10 UNK        -0.1985 
     62 C          33.6648   -0.6134   -8.6779 C.2       10 UNK         0.4970 
     63 O          34.7585   -1.0951   -8.3791 O.2       10 UNK        -0.4914 
     64 N          33.2380    0.5945   -8.2797 N.am      11 UNK        -0.4285 
     65 CA         34.0767    1.5908   -7.5922 C.3       11 UNK         0.1007 
     66 C          34.1372    2.9386   -8.3612 C.2       11 UNK         0.5703 
     67 N          33.1335    3.3089   -9.1497 N.am      11 UNK        -0.7361 
     68 O          35.1249    3.6610   -8.2493 O.2       11 UNK        -0.4986 
     69 C69        33.6554    1.8337   -6.1194 C.3       12 UNK        -0.0947 
     70 S70        33.6261    0.3164   -5.1065 S.3       12 UNK        -0.2240 
     71 C71        31.8338    0.1601   -4.8857 C.3       12 UNK         0.0194 
     72 H72        27.7725   -7.0626   -1.9101 H         1 UNK         0.0906 
     73 H73        26.0106   -7.0824   -2.0198 H         1 UNK         0.0906 
     74 H74        26.7978   -7.0973   -0.4396 H         1 UNK         0.0906 
     75 H75        26.6681   -5.1208    0.5504 H         1 UNK         0.3140 
     76 H76        26.7667   -3.0213    1.0841 H         1 UNK         0.1085 
     77 H77        28.1245   -1.3695   -0.1712 H         1 UNK         0.0836 
     78 H78        28.1750   -2.4261   -1.5605 H         1 UNK         0.0836 
     79 H79        30.8333   -1.2011   -0.1726 H         1 UNK         0.0731 
     80 H80        31.8870   -2.5947   -0.1566 H         1 UNK         0.0731 
     81 H81        31.6910   -0.2339   -2.1963 H         1 UNK         0.1312 
     82 H82        31.0963   -2.2287   -5.9324 H         1 UNK         0.1406 
     83 H83        30.2379   -4.2726   -2.2674 H         1 UNK         0.1631 
     84 H84        29.5589   -5.2748   -4.3108 H         1 UNK         0.0717 
     85 H85        31.0362   -5.1945   -5.2432 H         1 UNK         0.0717 
     86 H86        26.8811   -4.2399   -5.8352 H         1 UNK         0.0934 
     87 H87        27.7890   -3.2899   -4.7009 H         1 UNK         0.0934 
     88 H88        27.5849   -2.3368   -7.5869 H         1 UNK         0.0739 
     89 H89        25.4171   -1.7595   -5.6290 H         1 UNK         0.3093 
     90 H90        23.3419   -0.8112   -8.2647 H         1 UNK         0.0818 
     91 H91        22.7616   -3.2449   -8.4181 H         1 UNK         0.0819 
     92 H92        22.7901   -3.3733   -6.6652 H         1 UNK         0.0819 
     93 H93        21.5785   -2.3687   -7.4640 H         1 UNK         0.0819 
     94 H94        22.6726   -1.1561   -5.5442 H         1 UNK         0.3041 
     95 H95        24.4757    1.4743   -4.0718 H         1 UNK         0.0784 
     96 H96        22.5893    2.7078   -5.1465 H         1 UNK         0.0793 
     97 H97        21.4860    1.4027   -4.7320 H         1 UNK         0.0793 
     98 H98        22.2517    2.3574   -3.4608 H         1 UNK         0.0793 
     99 H99        22.4817   -0.0528   -2.8952 H         1 UNK         0.3024 
    100 H100       23.0947   -1.6400   -1.3327 H         1 UNK         0.1171 
    101 H101       23.3130   -3.7931   -3.5235 H         1 UNK         0.0786 
    102 H102       22.4312   -3.9692   -2.0073 H         1 UNK         0.0786 
    103 H103       21.8961   -2.8010   -3.2026 H         1 UNK         0.0786 
    104 H104       25.1881   -3.6478   -1.9280 H         1 UNK         0.2977 
    105 H105       26.7322   -0.8609   -4.4150 H         1 UNK         0.3127 
    106 H106       29.1792    0.3344   -3.9104 H         1 UNK         0.0770 
    107 H107       27.4136   -0.0572   -2.2185 H         1 UNK         0.0814 
    108 H108       27.9680    1.6081   -2.1819 H         1 UNK         0.0814 
    109 H109       26.4274    1.2163   -2.9271 H         1 UNK         0.0814 
    110 H110       26.6015    1.6328   -5.9743 H         1 UNK         0.2983 
    111 H111       28.1431    4.1833   -6.3158 H         1 UNK         0.0947 
    112 H112       25.1876    3.6113   -6.8843 H         1 UNK         0.0806 
    113 H113       26.0043    5.1610   -7.0122 H         1 UNK         0.0806 
    114 H114       25.7901    4.4179   -5.4369 H         1 UNK         0.0806 
    115 H115       28.2540    1.2765   -7.6760 H         1 UNK         0.3000 
    116 H116       27.7342    2.0435  -10.4961 H         1 UNK         0.0850 
    117 H117       27.9266   -0.3747  -10.9150 H         1 UNK         0.0810 
    118 H118       26.8460   -0.1303   -9.5599 H         1 UNK         0.0810 
    119 H119       28.4997   -0.6695   -9.2809 H         1 UNK         0.0810 
    120 H120       29.3457    1.0734  -12.0509 H         1 UNK         0.3040 
    121 H121       31.8770    2.2888  -11.8937 H         1 UNK         0.0766 
    122 H122       30.8628    0.0632  -13.7465 H         1 UNK         0.0812 
    123 H123       32.2818    1.0594  -14.0348 H         1 UNK         0.0812 
    124 H124       30.6915    1.7982  -14.0214 H         1 UNK         0.0812 
    125 H125       30.9539   -0.5471  -10.3351 H         1 UNK         0.3205 
    126 H126       33.3589   -2.0709  -10.2179 H         1 UNK         0.0754 
    127 H127       31.0726   -1.6906   -8.2042 H         1 UNK         0.0769 
    128 H128       32.3248   -2.9206   -8.0724 H         1 UNK         0.0769 
    129 H129       31.1968   -2.9635   -9.4165 H         1 UNK         0.0769 
    130 H130       32.3249    0.9171   -8.5787 H         1 UNK         0.2981 
    131 H131       35.1074    1.2320   -7.5709 H         1 UNK         0.0541 
    132 H132       33.2057    4.1860   -9.6393 H         1 UNK         0.3459 
    133 H133       32.2696    2.7770   -9.2038 H         1 UNK         0.3459 
    134 H134       32.6786    2.3201   -6.0816 H         1 UNK         0.0612 
    135 H135       34.3508    2.5256   -5.6404 H         1 UNK         0.0612 
    136 H136       31.3515    0.1819   -5.8642 H         1 UNK         0.0624 
    137 H137       31.4680    1.0332   -4.3437 H         1 UNK         0.0624 
@<TRIPOS>BOND
     1    1    2 1    
     2    1   72 1    
     3    1   73 1    
     4    1   74 1    
     5    2    3 2    
     6    2    4 am   BACKBONE|DICT|INTERRES
     7    4    5 1    
     8    4   75 1    
     9    5    6 1    
    10    5   35 1    
    11    5   76 1    
    12    6    7 1    
    13    6   77 1    
    14    6   78 1    
    15    7    8 1    
    16    8    9 1    
    17    8   79 1    
    18    8   80 1    
    19    9   10 ar   
    20    9   14 ar   
    21   10   11 ar   
    22   10   81 1    
    23   11   12 ar   
    24   11   71 1    
    25   12   13 ar   
    26   12   82 1    
    27   13   14 ar   
    28   13   15 1    
    29   14   83 1    
    30   15   16 1    
    31   15   84 1    
    32   15   85 1    
    33   16   17 1    
    34   17   18 1    
    35   17   86 1    
    36   17   87 1    
    37   18   19 1    
    38   18   37 1    
    39   18   88 1    
    40   19   20 am   BACKBONE|DICT|INTERRES
    41   19   89 1    
    42   20   21 2    
    43   20   22 1    
    44   22   23 1    
    45   22   24 1    
    46   22   90 1    
    47   23   91 1    
    48   23   92 1    
    49   23   93 1    
    50   24   25 am   BACKBONE|DICT|INTERRES
    51   24   94 1    
    52   25   26 2    
    53   25   27 1    
    54   27   28 1    
    55   27   29 1    
    56   27   95 1    
    57   28   96 1    
    58   28   97 1    
    59   28   98 1    
    60   29   30 am   BACKBONE|DICT|INTERRES
    61   29   99 1    
    62   30   31 2    
    63   30   32 1    
    64   32   33 1    
    65   32   34 1    
    66   32  100 1    
    67   33  101 1    
    68   33  102 1    
    69   33  103 1    
    70   34   35 am   BACKBONE|DICT|INTERRES
    71   34  104 1    
    72   35   36 2    
    73   37   38 2    
    74   37   39 am   BACKBONE|DICT|INTERRES
    75   39   40 1    
    76   39  105 1    
    77   40   41 1    
    78   40   42 1    
    79   40  106 1    
    80   41  107 1    
    81   41  108 1    
    82   41  109 1    
    83   42   43 2    
    84   42   44 am   BACKBONE|DICT|INTERRES
    85   44   45 1    
    86   44  110 1    
    87   45   46 1    
    88   45   47 1    
    89   45  111 1    
    90   46  112 1    
    91   46  113 1    
    92   46  114 1    
    93   47   48 2    
    94   47   49 am   BACKBONE|DICT|INTERRES
    95   49   50 1    
    96   49  115 1    
    97   50   51 1    
    98   50   52 1    
    99   50  116 1    
   100   51  117 1    
   101   51  118 1    
   102   51  119 1    
   103   52   53 2    
   104   52   54 am   BACKBONE|DICT|INTERRES
   105   54   55 1    
   106   54  120 1    
   107   55   56 1    
   108   55   57 1    
   109   55  121 1    
   110   56  122 1    
   111   56  123 1    
   112   56  124 1    
   113   57   58 2    
   114   57   59 am   BACKBONE|DICT|INTERRES
   115   59   60 1    
   116   59  125 1    
   117   60   61 1    
   118   60   62 1    
   119   60  126 1    
   120   61  127 1    
   121   61  128 1    
   122   61  129 1    
   123   62   63 2    
   124   62   64 am   BACKBONE|DICT|INTERRES
   125   64   65 1    
   126   64  130 1    
   127   65   66 1    
   128   65   69 1    
   129   65  131 1    
   130   66   67 am   BACKBONE|DICT|INTERRES
   131   66   68 2    
   132   67  132 1    
   133   67  133 1    
   134   69   70 1    
   135   69  134 1    
   136   69  135 1    
   137   70   71 1    
   138   71  136 1    
   139   71  137 1    
@<TRIPOS>SUBSTRUCTURE
     1 UNK         1 GROUP             0       ****    0 ROOT    
