@<TRIPOS>MOLECULE
3R137
137   139    1
SMALL
USER_CHARGES


@<TRIPOS>ATOM
      1 CA         25.3090   -5.5046    1.0472 C.3       0 UNK        -0.2020 
      2 C          26.7102   -5.2300    0.5084 C.2       0 UNK         0.4855 
      3 O          27.4404   -6.1744    0.2155 O.2       0 UNK        -0.5197 
      4 N          27.1394   -3.9680    0.3620 N.am      1 UNK        -0.4892 
      5 CA         26.3855   -2.7308    0.6150 C.3       1 UNK         0.0835 
      6 C6         27.3396   -1.5246    0.8196 C.3       12 UNK        -0.0855 
      7 S7         28.2951   -1.0748   -0.6715 S.3       12 UNK        -0.2931 
      8 C8         29.9085   -1.8359   -0.3367 C.3       12 UNK         0.0378 
      9 C9         30.7346   -1.9341   -1.6098 C.ar      12 UNK        -0.0802 
     10 C10        31.7166   -0.9798   -1.8916 C.ar      12 UNK        -0.0944 
     11 C11        32.5182   -1.0997   -3.0316 C.ar      12 UNK        -0.0787 
     12 C12        32.3264   -2.1848   -3.8927 C.ar      12 UNK        -0.0862 
     13 C13        31.3215   -3.1244   -3.6431 C.ar      12 UNK        -0.0733 
     14 C14        30.5307   -2.9955   -2.4973 C.ar      12 UNK        -0.0832 
     15 C15        31.1191   -4.2993   -4.5907 C.3       12 UNK         0.0240 
     16 S16        30.5302   -3.7802   -6.2340 S.3       12 UNK        -0.2522 
     17 C17        28.8051   -3.2918   -5.8903 C.3       12 UNK        -0.0967 
     18 CA         28.2921   -2.2565   -6.9240 C.3       5 UNK         0.0660 
     19 N          26.8361   -2.1851   -6.9666 N.am      5 UNK        -0.4015 
     20 C          26.1365   -1.8588   -8.0631 C.2       4 UNK         0.4946 
     21 O          26.6407   -1.6814   -9.1714 O.2       4 UNK        -0.5353 
     22 CA         24.6211   -1.6455   -7.8874 C.3       4 UNK         0.0277 
     23 CB         23.8705   -2.9803   -8.0190 C.3       4 UNK        -0.1981 
     24 N          24.2775   -1.0136   -6.6125 N.am      4 UNK        -0.4209 
     25 C          24.7542    0.1651   -6.1843 C.2       3 UNK         0.4942 
     26 O          25.4397    0.9153   -6.8787 O.2       3 UNK        -0.5208 
     27 CA         24.4843    0.5367   -4.7151 C.3       3 UNK         0.0250 
     28 CB         23.2931    1.5014   -4.6156 C.3       3 UNK        -0.1990 
     29 N          24.2504   -0.6297   -3.8527 N.am      3 UNK        -0.4232 
     30 C          25.1459   -1.6008   -3.6208 C.2       2 UNK         0.4993 
     31 O          26.2936   -1.6023   -4.0788 O.2       2 UNK        -0.5286 
     32 CA         24.6486   -2.8162   -2.8278 C.3       2 UNK         0.0209 
     33 CB         24.6706   -4.0777   -3.7085 C.3       2 UNK        -0.1931 
     34 N          25.4980   -3.0330   -1.6626 N.am      2 UNK        -0.4546 
     35 C          25.3256   -2.4399   -0.4729 C.2       1 UNK         0.5154 
     36 O          24.3749   -1.7007   -0.2108 O.2       1 UNK        -0.5181 
     37 C          28.8685   -0.8504   -6.6869 C.2       5 UNK         0.5014 
     38 O          29.6005   -0.3432   -7.5362 O.2       5 UNK        -0.5248 
     39 N          28.5388   -0.2511   -5.5351 N.am      6 UNK        -0.4434 
     40 CA         29.2199    0.9380   -5.0197 C.3       6 UNK         0.0363 
     41 CB         28.8240    1.1574   -3.5552 C.3       6 UNK        -0.1936 
     42 C          29.0178    2.2282   -5.8288 C.2       6 UNK         0.5081 
     43 O          29.9430    3.0386   -5.8833 O.2       6 UNK        -0.5248 
     44 N          27.8302    2.4186   -6.4162 N.am      7 UNK        -0.4718 
     45 CA         27.4660    3.6397   -7.1352 C.3       7 UNK         0.0273 
     46 CB         26.1376    4.1939   -6.5902 C.3       7 UNK        -0.1935 
     47 C          27.3857    3.3946   -8.6447 C.2       7 UNK         0.5018 
     48 O          28.0284    4.1257   -9.3977 O.2       7 UNK        -0.5186 
     49 N          26.6036    2.3894   -9.0679 N.am      8 UNK        -0.4240 
     50 CA         26.3220    2.1296  -10.4851 C.3       8 UNK         0.0235 
     51 CB         25.0987    1.2136  -10.6375 C.3       8 UNK        -0.2000 
     52 C          27.5402    1.5778  -11.2414 C.2       8 UNK         0.4941 
     53 O          27.9166    2.1440  -12.2683 O.2       8 UNK        -0.5273 
     54 N          28.1576    0.5131  -10.7089 N.am      9 UNK        -0.4262 
     55 CA         29.4078   -0.0495  -11.2334 C.3       9 UNK         0.0264 
     56 CB         29.4892   -1.5429  -10.8779 C.3       9 UNK        -0.1955 
     57 C          30.6614    0.6953  -10.7357 C.2       9 UNK         0.5031 
     58 O          31.7587    0.3799  -11.1985 O.2       9 UNK        -0.5390 
     59 N          30.4926    1.6393   -9.7960 N.am      10 UNK        -0.4204 
     60 CA         31.5271    2.4612   -9.1537 C.3       10 UNK         0.0237 
     61 CB         32.0788    3.5016  -10.1509 C.3       10 UNK        -0.1985 
     62 C          32.6331    1.6186   -8.4851 C.2       10 UNK         0.4970 
     63 O          33.8175    1.9237   -8.6360 O.2       10 UNK        -0.4914 
     64 N          32.2119    0.5529   -7.7931 N.am      11 UNK        -0.4285 
     65 CA         33.0375   -0.4971   -7.1780 C.3       11 UNK         0.1007 
     66 C          33.7107   -1.4709   -8.1925 C.2       11 UNK         0.5703 
     67 N          33.4439   -1.3938   -9.4917 N.am      11 UNK        -0.7361 
     68 O          34.4718   -2.3472   -7.7891 O.2       11 UNK        -0.4986 
     69 C69        34.0419    0.0299   -6.1104 C.3       12 UNK        -0.0947 
     70 S70        33.2497    0.9649   -4.7555 S.3       12 UNK        -0.2240 
     71 C71        33.6127   -0.0758   -3.3037 C.3       12 UNK         0.0194 
     72 H72        24.5460   -5.1456    0.3576 H         1 UNK         0.0906 
     73 H73        25.1558   -6.5759    1.1774 H         1 UNK         0.0906 
     74 H74        25.1607   -5.0337    2.0183 H         1 UNK         0.0906 
     75 H75        28.0731   -3.8240    0.0080 H         1 UNK         0.3140 
     76 H76        25.8369   -2.8550    1.5507 H         1 UNK         0.1085 
     77 H77        26.7681   -0.6466    1.1276 H         1 UNK         0.0836 
     78 H78        28.0250   -1.7251    1.6449 H         1 UNK         0.0836 
     79 H79        30.4325   -1.2492    0.4194 H         1 UNK         0.0731 
     80 H80        29.7757   -2.8319    0.0868 H         1 UNK         0.0731 
     81 H81        31.8674   -0.1525   -1.2116 H         1 UNK         0.1312 
     82 H82        32.9566   -2.3014   -4.7622 H         1 UNK         0.1406 
     83 H83        29.7637   -3.7283   -2.2872 H         1 UNK         0.1631 
     84 H84        30.4211   -5.0271   -4.1738 H         1 UNK         0.0717 
     85 H85        32.0688   -4.8224   -4.7108 H         1 UNK         0.0717 
     86 H86        28.1997   -4.1981   -5.9407 H         1 UNK         0.0934 
     87 H87        28.7070   -2.9250   -4.8668 H         1 UNK         0.0934 
     88 H88        28.6353   -2.5913   -7.9046 H         1 UNK         0.0739 
     89 H89        26.3630   -2.2287   -6.0721 H         1 UNK         0.3093 
     90 H90        24.2771   -0.9823   -8.6815 H         1 UNK         0.0818 
     91 H91        22.7909   -2.8359   -7.9747 H         1 UNK         0.0819 
     92 H92        24.0913   -3.4575   -8.9751 H         1 UNK         0.0819 
     93 H93        24.1490   -3.6834   -7.2330 H         1 UNK         0.0819 
     94 H94        23.6965   -1.5467   -5.9832 H         1 UNK         0.3041 
     95 H95        25.3733    1.0510   -4.3444 H         1 UNK         0.0784 
     96 H96        23.4569    2.3879   -5.2303 H         1 UNK         0.0793 
     97 H97        22.3657    1.0374   -4.9540 H         1 UNK         0.0793 
     98 H98        23.1447    1.8442   -3.5914 H         1 UNK         0.0793 
     99 H99        23.3333   -0.7007   -3.4345 H         1 UNK         0.3024 
    100 H100       23.6196   -2.6462   -2.5012 H         1 UNK         0.1171 
    101 H101       24.0318   -3.9564   -4.5842 H         1 UNK         0.0786 
    102 H102       24.3051   -4.9472   -3.1617 H         1 UNK         0.0786 
    103 H103       25.6754   -4.3078   -4.0663 H         1 UNK         0.0786 
    104 H104       26.3377   -3.5763   -1.8057 H         1 UNK         0.2977 
    105 H105       27.8842   -0.7132   -4.9094 H         1 UNK         0.3127 
    106 H106       30.2903    0.7231   -5.0388 H         1 UNK         0.0770 
    107 H107       27.7440    1.2392   -3.4300 H         1 UNK         0.0814 
    108 H108       29.2755    2.0658   -3.1538 H         1 UNK         0.0814 
    109 H109       29.1763    0.3304   -2.9427 H         1 UNK         0.0814 
    110 H110       27.1235    1.6899   -6.3775 H         1 UNK         0.2983 
    111 H111       28.2205    4.4139   -6.9772 H         1 UNK         0.0947 
    112 H112       25.8753    5.1288   -7.0872 H         1 UNK         0.0806 
    113 H113       26.2068    4.4040   -5.5229 H         1 UNK         0.0806 
    114 H114       25.3066    3.5055   -6.7403 H         1 UNK         0.0806 
    115 H115       26.1177    1.8230   -8.3756 H         1 UNK         0.3000 
    116 H116       26.0628    3.0875  -10.9424 H         1 UNK         0.0850 
    117 H117       24.7867    1.1600  -11.6813 H         1 UNK         0.0810 
    118 H118       24.2482    1.5793  -10.0620 H         1 UNK         0.0810 
    119 H119       25.3125    0.1969  -10.3181 H         1 UNK         0.0810 
    120 H120       27.7501    0.0475   -9.9047 H         1 UNK         0.3040 
    121 H121       29.3998    0.0290  -12.3227 H         1 UNK         0.0766 
    122 H122       30.3542   -2.0100  -11.3505 H         1 UNK         0.0812 
    123 H123       28.6040   -2.0826  -11.2148 H         1 UNK         0.0812 
    124 H124       29.5882   -1.6955   -9.8047 H         1 UNK         0.0812 
    125 H125       29.5501    1.7854   -9.4647 H         1 UNK         0.3205 
    126 H126       31.0311    3.0072   -8.3506 H         1 UNK         0.0754 
    127 H127       32.7672    4.1895   -9.6586 H         1 UNK         0.0769 
    128 H128       31.2754    4.1004  -10.5804 H         1 UNK         0.0769 
    129 H129       32.6202    3.0280  -10.9708 H         1 UNK         0.0769 
    130 H130       31.2108    0.3623   -7.7606 H         1 UNK         0.2981 
    131 H131       32.3138   -1.1224   -6.6560 H         1 UNK         0.0541 
    132 H132       33.8864   -2.0475  -10.1169 H         1 UNK         0.3459 
    133 H133       32.8352   -0.6763   -9.8698 H         1 UNK         0.3459 
    134 H134       34.7907    0.6741   -6.5719 H         1 UNK         0.0612 
    135 H135       34.6049   -0.7991   -5.6805 H         1 UNK         0.0612 
    136 H136       34.5729   -0.5795   -3.4204 H         1 UNK         0.0624 
    137 H137       33.7292    0.5848   -2.4433 H         1 UNK         0.0624 
@<TRIPOS>BOND
     1    1    2 1    
     2    1   72 1    
     3    1   73 1    
     4    1   74 1    
     5    2    3 2    
     6    2    4 am   BACKBONE|DICT|INTERRES
     7    4    5 1    
     8    4   75 1    
     9    5    6 1    
    10    5   35 1    
    11    5   76 1    
    12    6    7 1    
    13    6   77 1    
    14    6   78 1    
    15    7    8 1    
    16    8    9 1    
    17    8   79 1    
    18    8   80 1    
    19    9   10 ar   
    20    9   14 ar   
    21   10   11 ar   
    22   10   81 1    
    23   11   12 ar   
    24   11   71 1    
    25   12   13 ar   
    26   12   82 1    
    27   13   14 ar   
    28   13   15 1    
    29   14   83 1    
    30   15   16 1    
    31   15   84 1    
    32   15   85 1    
    33   16   17 1    
    34   17   18 1    
    35   17   86 1    
    36   17   87 1    
    37   18   19 1    
    38   18   37 1    
    39   18   88 1    
    40   19   20 am   BACKBONE|DICT|INTERRES
    41   19   89 1    
    42   20   21 2    
    43   20   22 1    
    44   22   23 1    
    45   22   24 1    
    46   22   90 1    
    47   23   91 1    
    48   23   92 1    
    49   23   93 1    
    50   24   25 am   BACKBONE|DICT|INTERRES
    51   24   94 1    
    52   25   26 2    
    53   25   27 1    
    54   27   28 1    
    55   27   29 1    
    56   27   95 1    
    57   28   96 1    
    58   28   97 1    
    59   28   98 1    
    60   29   30 am   BACKBONE|DICT|INTERRES
    61   29   99 1    
    62   30   31 2    
    63   30   32 1    
    64   32   33 1    
    65   32   34 1    
    66   32  100 1    
    67   33  101 1    
    68   33  102 1    
    69   33  103 1    
    70   34   35 am   BACKBONE|DICT|INTERRES
    71   34  104 1    
    72   35   36 2    
    73   37   38 2    
    74   37   39 am   BACKBONE|DICT|INTERRES
    75   39   40 1    
    76   39  105 1    
    77   40   41 1    
    78   40   42 1    
    79   40  106 1    
    80   41  107 1    
    81   41  108 1    
    82   41  109 1    
    83   42   43 2    
    84   42   44 am   BACKBONE|DICT|INTERRES
    85   44   45 1    
    86   44  110 1    
    87   45   46 1    
    88   45   47 1    
    89   45  111 1    
    90   46  112 1    
    91   46  113 1    
    92   46  114 1    
    93   47   48 2    
    94   47   49 am   BACKBONE|DICT|INTERRES
    95   49   50 1    
    96   49  115 1    
    97   50   51 1    
    98   50   52 1    
    99   50  116 1    
   100   51  117 1    
   101   51  118 1    
   102   51  119 1    
   103   52   53 2    
   104   52   54 am   BACKBONE|DICT|INTERRES
   105   54   55 1    
   106   54  120 1    
   107   55   56 1    
   108   55   57 1    
   109   55  121 1    
   110   56  122 1    
   111   56  123 1    
   112   56  124 1    
   113   57   58 2    
   114   57   59 am   BACKBONE|DICT|INTERRES
   115   59   60 1    
   116   59  125 1    
   117   60   61 1    
   118   60   62 1    
   119   60  126 1    
   120   61  127 1    
   121   61  128 1    
   122   61  129 1    
   123   62   63 2    
   124   62   64 am   BACKBONE|DICT|INTERRES
   125   64   65 1    
   126   64  130 1    
   127   65   66 1    
   128   65   69 1    
   129   65  131 1    
   130   66   67 am   BACKBONE|DICT|INTERRES
   131   66   68 2    
   132   67  132 1    
   133   67  133 1    
   134   69   70 1    
   135   69  134 1    
   136   69  135 1    
   137   70   71 1    
   138   71  136 1    
   139   71  137 1    
@<TRIPOS>SUBSTRUCTURE
     1 UNK         1 GROUP             0       ****    0 ROOT    
