@<TRIPOS>MOLECULE
3R137
137   139    1
SMALL
USER_CHARGES


@<TRIPOS>ATOM
      1 CA         25.2381   -4.8446    0.6352 C.3       0 UNK        -0.2020 
      2 C          26.4105   -5.2421   -0.2593 C.2       0 UNK         0.4855 
      3 O          26.5989   -6.4312   -0.5091 O.2       0 UNK        -0.5197 
      4 N          27.2355   -4.3062   -0.7496 N.am      1 UNK        -0.4892 
      5 CA         27.1300   -2.8469   -0.6005 C.3       1 UNK         0.0835 
      6 C6         28.4119   -2.1128   -1.0754 C.3       12 UNK        -0.0855 
      7 S7         29.9407   -2.7477   -0.3088 S.3       12 UNK        -0.2931 
      8 C8         31.2097   -2.0661   -1.4359 C.3       12 UNK         0.0378 
      9 C9         31.3290   -2.7276   -2.8135 C.ar      12 UNK        -0.0802 
     10 C10        32.3672   -2.3119   -3.6537 C.ar      12 UNK        -0.0944 
     11 C11        32.5436   -2.8851   -4.9164 C.ar      12 UNK        -0.0787 
     12 C12        31.6539   -3.8701   -5.3552 C.ar      12 UNK        -0.0862 
     13 C13        30.6098   -4.2988   -4.5312 C.ar      12 UNK        -0.0733 
     14 C14        30.4621   -3.7341   -3.2626 C.ar      12 UNK        -0.0832 
     15 C15        29.6716   -5.4091   -4.9857 C.3       12 UNK         0.0240 
     16 S16        28.5619   -4.8906   -6.3316 S.3       12 UNK        -0.2522 
     17 C17        27.3927   -3.7620   -5.4959 C.3       12 UNK        -0.0967 
     18 CA         26.9795   -2.5987   -6.4348 C.3       5 UNK         0.0660 
     19 N          25.6458   -2.0728   -6.1479 N.am      5 UNK        -0.4015 
     20 C          24.5841   -2.2506   -6.9486 C.2       4 UNK         0.4946 
     21 O          24.5783   -3.0055   -7.9221 O.2       4 UNK        -0.5353 
     22 CA         23.3015   -1.4501   -6.6477 C.3       4 UNK         0.0277 
     23 CB         22.2450   -2.3609   -6.0002 C.3       4 UNK        -0.1981 
     24 N          23.4869   -0.2691   -5.8026 N.am      4 UNK        -0.4209 
     25 C          24.3021    0.7681   -6.0431 C.2       3 UNK         0.4942 
     26 O          25.0093    0.8771   -7.0445 O.2       3 UNK        -0.5208 
     27 CA         24.4080    1.8221   -4.9262 C.3       3 UNK         0.0250 
     28 CB         23.3992    2.9575   -5.1598 C.3       3 UNK        -0.1990 
     29 N          24.2215    1.2697   -3.5780 N.am      3 UNK        -0.4232 
     30 C          24.9608    0.2883   -3.0404 C.2       2 UNK         0.4993 
     31 O          25.9053   -0.2457   -3.6314 O.2       2 UNK        -0.5286 
     32 CA         24.5408   -0.1716   -1.6306 C.3       2 UNK         0.0209 
     33 CB         23.1465   -0.8360   -1.6472 C.3       2 UNK        -0.1931 
     34 N          25.5348   -1.0430   -0.9885 N.am      2 UNK        -0.4546 
     35 C          25.9157   -2.2745   -1.3608 C.2       1 UNK         0.5154 
     36 O          25.3936   -2.9250   -2.2706 O.2       1 UNK        -0.5181 
     37 C          28.0075   -1.4577   -6.4542 C.2       5 UNK         0.5014 
     38 O          28.6992   -1.3012   -7.4597 O.2       5 UNK        -0.5248 
     39 N          28.0910   -0.6706   -5.3705 N.am      6 UNK        -0.4434 
     40 CA         29.1560    0.3143   -5.1647 C.3       6 UNK         0.0363 
     41 CB         29.1002    0.8581   -3.7293 C.3       6 UNK        -0.1936 
     42 C          29.1481    1.4645   -6.1817 C.2       6 UNK         0.5081 
     43 O          30.2090    1.8189   -6.6937 O.2       6 UNK        -0.5248 
     44 N          27.9648    2.0195   -6.4751 N.am      7 UNK        -0.4718 
     45 CA         27.8114    3.0689   -7.4867 C.3       7 UNK         0.0273 
     46 CB         26.5565    3.9127   -7.2128 C.3       7 UNK        -0.1935 
     47 C          27.7849    2.4724   -8.9001 C.2       7 UNK         0.5018 
     48 O          28.4215    3.0271   -9.7949 O.2       7 UNK        -0.5186 
     49 N          27.0873    1.3382   -9.0638 N.am      8 UNK        -0.4240 
     50 CA         26.9512    0.5936  -10.3192 C.3       8 UNK         0.0235 
     51 CB         26.0354   -0.6202  -10.0964 C.3       8 UNK        -0.2000 
     52 C          28.2920    0.1570  -10.9363 C.2       8 UNK         0.4941 
     53 O          28.4828    0.3301  -12.1407 O.2       8 UNK        -0.5273 
     54 N          29.2017   -0.3714  -10.1061 N.am      9 UNK        -0.4262 
     55 CA         30.5568   -0.7636  -10.5052 C.3       9 UNK         0.0264 
     56 CB         30.9973   -1.9672   -9.6553 C.3       9 UNK        -0.1955 
     57 C          31.5783    0.3882  -10.4111 C.2       9 UNK         0.5031 
     58 O          32.7325    0.1819  -10.7899 O.2       9 UNK        -0.5390 
     59 N          31.1508    1.5657   -9.9257 N.am      10 UNK        -0.4204 
     60 CA         31.9364    2.7891   -9.7129 C.3       10 UNK         0.0237 
     61 CB         32.3610    3.4074  -11.0620 C.3       10 UNK        -0.1985 
     62 C          33.1152    2.5817   -8.7407 C.2       10 UNK         0.4970 
     63 O          34.2428    2.9864   -9.0320 O.2       10 UNK        -0.4914 
     64 N          32.8231    1.9466   -7.6016 N.am      11 UNK        -0.4285 
     65 CA         33.7783    1.6365   -6.5283 C.3       11 UNK         0.1007 
     66 C          34.0037    2.8101   -5.5332 C.2       11 UNK         0.5703 
     67 N          33.2093    3.8742   -5.5646 N.am      11 UNK        -0.7361 
     68 O          34.9274    2.7595   -4.7244 O.2       11 UNK        -0.4986 
     69 C69        33.3787    0.3390   -5.7779 C.3       12 UNK        -0.0947 
     70 S70        33.2930   -1.0977   -6.8983 S.3       12 UNK        -0.2240 
     71 C71        33.7187   -2.4724   -5.7905 C.3       12 UNK         0.0194 
     72 H72        25.5398   -4.1379    1.4069 H         1 UNK         0.0906 
     73 H73        24.4353   -4.4044    0.0446 H         1 UNK         0.0906 
     74 H74        24.8334   -5.7217    1.1400 H         1 UNK         0.0906 
     75 H75        28.0067   -4.6155   -1.3194 H         1 UNK         0.3140 
     76 H76        26.9979   -2.6295    0.4611 H         1 UNK         0.1085 
     77 H77        28.4992   -2.1651   -2.1618 H         1 UNK         0.0836 
     78 H78        28.3519   -1.0489   -0.8376 H         1 UNK         0.0836 
     79 H79        32.1737   -2.1495   -0.9319 H         1 UNK         0.0731 
     80 H80        31.0266   -0.9987   -1.5678 H         1 UNK         0.0731 
     81 H81        33.0544   -1.5480   -3.3163 H         1 UNK         0.1312 
     82 H82        31.7818   -4.3152   -6.3327 H         1 UNK         0.1406 
     83 H83        29.6702   -4.0997   -2.6291 H         1 UNK         0.1631 
     84 H84        29.0729   -5.7859   -4.1549 H         1 UNK         0.0717 
     85 H85        30.2686   -6.2530   -5.3344 H         1 UNK         0.0717 
     86 H86        26.5167   -4.3541   -5.2256 H         1 UNK         0.0934 
     87 H87        27.8045   -3.3975   -4.5531 H         1 UNK         0.0934 
     88 H88        26.9762   -2.9898   -7.4548 H         1 UNK         0.0739 
     89 H89        25.5651   -1.4410   -5.3593 H         1 UNK         0.3093 
     90 H90        22.9146   -1.1004   -7.6071 H         1 UNK         0.0818 
     91 H91        21.2938   -1.8430   -5.8756 H         1 UNK         0.0819 
     92 H92        22.0529   -3.2388   -6.6191 H         1 UNK         0.0819 
     93 H93        22.5667   -2.7177   -5.0207 H         1 UNK         0.0819 
     94 H94        22.9641   -0.2558   -4.9396 H         1 UNK         0.3041 
     95 H95        25.4135    2.2437   -4.9662 H         1 UNK         0.0784 
     96 H96        23.5133    3.3872   -6.1559 H         1 UNK         0.0793 
     97 H97        22.3695    2.6081   -5.0744 H         1 UNK         0.0793 
     98 H98        23.5402    3.7671   -4.4435 H         1 UNK         0.0793 
     99 H99        23.4696    1.6663   -3.0320 H         1 UNK         0.3024 
    100 H100       24.4832    0.7247   -1.0102 H         1 UNK         0.1171 
    101 H101       22.3722   -0.1272   -1.9424 H         1 UNK         0.0786 
    102 H102       23.0985   -1.6728   -2.3448 H         1 UNK         0.0786 
    103 H103       22.8750   -1.2101   -0.6599 H         1 UNK         0.0786 
    104 H104       26.0527   -0.6014   -0.2413 H         1 UNK         0.2977 
    105 H105       27.4142   -0.7635   -4.6165 H         1 UNK         0.3127 
    106 H106       30.1041   -0.2151   -5.2836 H         1 UNK         0.0770 
    107 H107       28.1580    1.3676   -3.5244 H         1 UNK         0.0814 
    108 H108       29.9045    1.5737   -3.5527 H         1 UNK         0.0814 
    109 H109       29.2157    0.0583   -2.9998 H         1 UNK         0.0814 
    110 H110       27.1266    1.6349   -6.0643 H         1 UNK         0.2983 
    111 H111       28.6720    3.7397   -7.4263 H         1 UNK         0.0947 
    112 H112       26.5237    4.7757   -7.8791 H         1 UNK         0.0806 
    113 H113       26.5445    4.2933   -6.1915 H         1 UNK         0.0806 
    114 H114       25.6385    3.3514   -7.3778 H         1 UNK         0.0806 
    115 H115       26.5418    1.0004   -8.2761 H         1 UNK         0.3000 
    116 H116       26.4639    1.2596  -11.0343 H         1 UNK         0.0850 
    117 H117       25.8804   -1.1700  -11.0255 H         1 UNK         0.0810 
    118 H118       25.0538   -0.3171   -9.7311 H         1 UNK         0.0810 
    119 H119       26.4594   -1.3167   -9.3725 H         1 UNK         0.0810 
    120 H120       28.9562   -0.5347   -9.1296 H         1 UNK         0.3040 
    121 H121       30.5431   -1.0872  -11.5480 H         1 UNK         0.0766 
    122 H122       31.0246   -1.7190   -8.5948 H         1 UNK         0.0812 
    123 H123       31.9949   -2.3072   -9.9360 H         1 UNK         0.0812 
    124 H124       30.3185   -2.8109   -9.7799 H         1 UNK         0.0812 
    125 H125       30.1735    1.6372   -9.6721 H         1 UNK         0.3205 
    126 H126       31.2643    3.4973   -9.2259 H         1 UNK         0.0754 
    127 H127       32.8466    4.3728  -10.9139 H         1 UNK         0.0769 
    128 H128       31.4989    3.5749  -11.7079 H         1 UNK         0.0769 
    129 H129       33.0634    2.7687  -11.5985 H         1 UNK         0.0769 
    130 H130       31.8509    1.7182   -7.3994 H         1 UNK         0.2981 
    131 H131       34.7507    1.4535   -6.9895 H         1 UNK         0.0541 
    132 H132       32.4389    3.9130   -6.2124 H         1 UNK         0.3459 
    133 H133       33.3695    4.6313   -4.9194 H         1 UNK         0.3459 
    134 H134       32.4117    0.4576   -5.2873 H         1 UNK         0.0612 
    135 H135       34.1015    0.1219   -4.9896 H         1 UNK         0.0612 
    136 H136       34.5802   -2.2047   -5.1770 H         1 UNK         0.0624 
    137 H137       34.0364   -3.3195   -6.4001 H         1 UNK         0.0624 
@<TRIPOS>BOND
     1    1    2 1    
     2    1   72 1    
     3    1   73 1    
     4    1   74 1    
     5    2    3 2    
     6    2    4 am   BACKBONE|DICT|INTERRES
     7    4    5 1    
     8    4   75 1    
     9    5    6 1    
    10    5   35 1    
    11    5   76 1    
    12    6    7 1    
    13    6   77 1    
    14    6   78 1    
    15    7    8 1    
    16    8    9 1    
    17    8   79 1    
    18    8   80 1    
    19    9   10 ar   
    20    9   14 ar   
    21   10   11 ar   
    22   10   81 1    
    23   11   12 ar   
    24   11   71 1    
    25   12   13 ar   
    26   12   82 1    
    27   13   14 ar   
    28   13   15 1    
    29   14   83 1    
    30   15   16 1    
    31   15   84 1    
    32   15   85 1    
    33   16   17 1    
    34   17   18 1    
    35   17   86 1    
    36   17   87 1    
    37   18   19 1    
    38   18   37 1    
    39   18   88 1    
    40   19   20 am   BACKBONE|DICT|INTERRES
    41   19   89 1    
    42   20   21 2    
    43   20   22 1    
    44   22   23 1    
    45   22   24 1    
    46   22   90 1    
    47   23   91 1    
    48   23   92 1    
    49   23   93 1    
    50   24   25 am   BACKBONE|DICT|INTERRES
    51   24   94 1    
    52   25   26 2    
    53   25   27 1    
    54   27   28 1    
    55   27   29 1    
    56   27   95 1    
    57   28   96 1    
    58   28   97 1    
    59   28   98 1    
    60   29   30 am   BACKBONE|DICT|INTERRES
    61   29   99 1    
    62   30   31 2    
    63   30   32 1    
    64   32   33 1    
    65   32   34 1    
    66   32  100 1    
    67   33  101 1    
    68   33  102 1    
    69   33  103 1    
    70   34   35 am   BACKBONE|DICT|INTERRES
    71   34  104 1    
    72   35   36 2    
    73   37   38 2    
    74   37   39 am   BACKBONE|DICT|INTERRES
    75   39   40 1    
    76   39  105 1    
    77   40   41 1    
    78   40   42 1    
    79   40  106 1    
    80   41  107 1    
    81   41  108 1    
    82   41  109 1    
    83   42   43 2    
    84   42   44 am   BACKBONE|DICT|INTERRES
    85   44   45 1    
    86   44  110 1    
    87   45   46 1    
    88   45   47 1    
    89   45  111 1    
    90   46  112 1    
    91   46  113 1    
    92   46  114 1    
    93   47   48 2    
    94   47   49 am   BACKBONE|DICT|INTERRES
    95   49   50 1    
    96   49  115 1    
    97   50   51 1    
    98   50   52 1    
    99   50  116 1    
   100   51  117 1    
   101   51  118 1    
   102   51  119 1    
   103   52   53 2    
   104   52   54 am   BACKBONE|DICT|INTERRES
   105   54   55 1    
   106   54  120 1    
   107   55   56 1    
   108   55   57 1    
   109   55  121 1    
   110   56  122 1    
   111   56  123 1    
   112   56  124 1    
   113   57   58 2    
   114   57   59 am   BACKBONE|DICT|INTERRES
   115   59   60 1    
   116   59  125 1    
   117   60   61 1    
   118   60   62 1    
   119   60  126 1    
   120   61  127 1    
   121   61  128 1    
   122   61  129 1    
   123   62   63 2    
   124   62   64 am   BACKBONE|DICT|INTERRES
   125   64   65 1    
   126   64  130 1    
   127   65   66 1    
   128   65   69 1    
   129   65  131 1    
   130   66   67 am   BACKBONE|DICT|INTERRES
   131   66   68 2    
   132   67  132 1    
   133   67  133 1    
   134   69   70 1    
   135   69  134 1    
   136   69  135 1    
   137   70   71 1    
   138   71  136 1    
   139   71  137 1    
@<TRIPOS>SUBSTRUCTURE
     1 UNK         1 GROUP             0       ****    0 ROOT    
