@<TRIPOS>MOLECULE
3R137
137   139    1
SMALL
USER_CHARGES


@<TRIPOS>ATOM
      1 CA         25.8696   -6.9219   -4.2559 C.3       0 UNK        -0.2020 
      2 C          26.0267   -5.5160   -3.6997 C.2       0 UNK         0.4855 
      3 O          25.7668   -4.5488   -4.4147 O.2       0 UNK        -0.5197 
      4 N          26.4249   -5.3984   -2.4244 N.am      1 UNK        -0.4892 
      5 CA         26.7301   -4.1544   -1.6920 C.3       1 UNK         0.0835 
      6 C6         28.0616   -3.4846   -2.1291 C.3       12 UNK        -0.0855 
      7 S7         29.4849   -4.6240   -2.2325 S.3       12 UNK        -0.2931 
      8 C8         30.8235   -3.6247   -1.5002 C.3       12 UNK         0.0378 
      9 C9         31.0254   -2.2993   -2.2255 C.ar      12 UNK        -0.0802 
     10 C10        31.4928   -2.2787   -3.5444 C.ar      12 UNK        -0.0944 
     11 C11        31.6816   -1.0643   -4.2113 C.ar      12 UNK        -0.0787 
     12 C12        31.3950    0.1319   -3.5501 C.ar      12 UNK        -0.0862 
     13 C13        30.9045    0.1280   -2.2405 C.ar      12 UNK        -0.0733 
     14 C14        30.7423   -1.0921   -1.5760 C.ar      12 UNK        -0.0832 
     15 C15        30.5461    1.4557   -1.5742 C.3       12 UNK         0.0240 
     16 S16        28.9230    1.4834   -0.7246 S.3       12 UNK        -0.2522 
     17 C17        27.7308    0.6462   -1.8349 C.3       12 UNK        -0.0967 
     18 CA         27.8524    0.9223   -3.3561 C.3       5 UNK         0.0660 
     19 N          27.4451   -0.2457   -4.1455 N.am      5 UNK        -0.4015 
     20 C          27.9564   -0.5401   -5.3495 C.2       4 UNK         0.4946 
     21 O          28.8763    0.0906   -5.8649 O.2       4 UNK        -0.5353 
     22 CA         27.3390   -1.7067   -6.1397 C.3       4 UNK         0.0277 
     23 CB         28.2666   -2.9351   -6.1524 C.3       4 UNK        -0.1981 
     24 N          25.9944   -2.1098   -5.7146 N.am      4 UNK        -0.4209 
     25 C          24.8936   -1.3545   -5.8322 C.2       3 UNK         0.4942 
     26 O          24.9157   -0.1706   -6.1656 O.2       3 UNK        -0.5208 
     27 CA         23.5498   -2.0194   -5.5143 C.3       3 UNK         0.0250 
     28 CB         23.2163   -3.1037   -6.5533 C.3       3 UNK        -0.1990 
     29 N          23.5686   -2.6111   -4.1782 N.am      3 UNK        -0.4232 
     30 C          22.9154   -2.1210   -3.1150 C.2       2 UNK         0.4993 
     31 O          22.1864   -1.1291   -3.1557 O.2       2 UNK        -0.5286 
     32 CA         23.0911   -2.8539   -1.7693 C.3       2 UNK         0.0209 
     33 CB         21.8832   -3.7648   -1.4940 C.3       2 UNK        -0.1931 
     34 N          24.3203   -3.6476   -1.6689 N.am      2 UNK        -0.4546 
     35 C          25.5606   -3.1403   -1.7028 C.2       1 UNK         0.5154 
     36 O          25.7876   -1.9324   -1.7934 O.2       1 UNK        -0.5181 
     37 C          27.1259    2.2097   -3.7970 C.2       5 UNK         0.5014 
     38 O          27.6435    3.2999   -3.5490 O.2       5 UNK        -0.5248 
     39 N          25.9710    2.0800   -4.4684 N.am      6 UNK        -0.4434 
     40 CA         25.2877    3.1866   -5.1391 C.3       6 UNK         0.0363 
     41 CB         23.7680    2.9486   -5.1353 C.3       6 UNK        -0.1936 
     42 C          25.8301    3.3313   -6.5678 C.2       6 UNK         0.5081 
     43 O          26.2763    4.4132   -6.9508 O.2       6 UNK        -0.5248 
     44 N          25.8395    2.2209   -7.3161 N.am      7 UNK        -0.4718 
     45 CA         26.4187    2.0981   -8.6532 C.3       7 UNK         0.0273 
     46 CB         25.6913    0.9660   -9.4029 C.3       7 UNK        -0.1935 
     47 C          27.9375    1.8640   -8.5628 C.2       7 UNK         0.5018 
     48 O          28.4250    0.8190   -8.9977 O.2       7 UNK        -0.5186 
     49 N          28.6536    2.8477   -7.9955 N.am      8 UNK        -0.4240 
     50 CA         30.0837    2.8157   -7.6493 C.3       8 UNK         0.0235 
     51 CB         30.4897    4.1760   -7.0617 C.3       8 UNK        -0.2000 
     52 C          31.0401    2.4109   -8.7862 C.2       8 UNK         0.4941 
     53 O          32.1151    1.8777   -8.5076 O.2       8 UNK        -0.5273 
     54 N          30.6126    2.6086  -10.0421 N.am      9 UNK        -0.4262 
     55 CA         31.2648    2.1207  -11.2611 C.3       9 UNK         0.0264 
     56 CB         30.4543    2.5814  -12.4831 C.3       9 UNK        -0.1955 
     57 C          31.4768    0.5932  -11.3026 C.2       9 UNK         0.5031 
     58 O          32.3697    0.1406  -12.0198 O.2       9 UNK        -0.5390 
     59 N          30.7080   -0.1724  -10.5109 N.am      10 UNK        -0.4204 
     60 CA         30.8889   -1.6107  -10.2865 C.3       10 UNK         0.0237 
     61 CB         29.7711   -2.1169   -9.3619 C.3       10 UNK        -0.1985 
     62 C          32.2690   -1.9931   -9.7129 C.2       10 UNK         0.4970 
     63 O          32.7295   -3.1059   -9.9705 O.2       10 UNK        -0.4914 
     64 N          32.9095   -1.0740   -8.9766 N.am      11 UNK        -0.4285 
     65 CA         34.3012   -1.1966   -8.5154 C.3       11 UNK         0.1007 
     66 C          35.3561   -0.7713   -9.5822 C.2       11 UNK         0.5703 
     67 N          34.9819   -0.3197  -10.7742 N.am      11 UNK        -0.7361 
     68 O          36.5546   -0.8746   -9.3307 O.2       11 UNK        -0.4986 
     69 C69        34.5094   -0.4575   -7.1649 C.3       12 UNK        -0.0947 
     70 S70        33.9484   -1.4361   -5.7332 S.3       12 UNK        -0.2240 
     71 C71        32.1779   -1.0341   -5.6497 C.3       12 UNK         0.0194 
     72 H72        24.8432   -7.0819   -4.5848 H         1 UNK         0.0906 
     73 H73        26.5274   -7.0577   -5.1139 H         1 UNK         0.0906 
     74 H74        26.1137   -7.6845   -3.5166 H         1 UNK         0.0906 
     75 H75        26.6073   -6.2440   -1.9012 H         1 UNK         0.3140 
     76 H76        26.8469   -4.4467   -0.6471 H         1 UNK         0.1085 
     77 H77        27.9494   -2.9916   -3.0932 H         1 UNK         0.0836 
     78 H78        28.3097   -2.6950   -1.4192 H         1 UNK         0.0836 
     79 H79        31.7516   -4.1968   -1.5367 H         1 UNK         0.0731 
     80 H80        30.6068   -3.4619   -0.4432 H         1 UNK         0.0731 
     81 H81        31.7081   -3.2088   -4.0525 H         1 UNK         0.1312 
     82 H82        31.5283    1.0701   -4.0714 H         1 UNK         0.1406 
     83 H83        30.3735   -1.0993   -0.5593 H         1 UNK         0.1631 
     84 H84        30.5556    2.2666   -2.3045 H         1 UNK         0.0717 
     85 H85        31.3211    1.6985   -0.8462 H         1 UNK         0.0717 
     86 H86        27.8876   -0.4156   -1.6512 H         1 UNK         0.0934 
     87 H87        26.7174    0.8446   -1.4802 H         1 UNK         0.0934 
     88 H88        28.8939    1.1144   -3.5936 H         1 UNK         0.0739 
     89 H89        26.7089   -0.8238   -3.7625 H         1 UNK         0.3093 
     90 H90        27.2572   -1.3515   -7.1697 H         1 UNK         0.0818 
     91 H91        28.2539   -3.4767   -5.2091 H         1 UNK         0.0819 
     92 H92        27.9750   -3.6355   -6.9349 H         1 UNK         0.0819 
     93 H93        29.3016   -2.6509   -6.3429 H         1 UNK         0.0819 
     94 H94        25.8993   -3.0637   -5.3656 H         1 UNK         0.3041 
     95 H95        22.7795   -1.2482   -5.5817 H         1 UNK         0.0784 
     96 H96        23.2237   -2.6920   -7.5636 H         1 UNK         0.0793 
     97 H97        23.9302   -3.9282   -6.5301 H         1 UNK         0.0793 
     98 H98        22.2236   -3.5198   -6.3809 H         1 UNK         0.0793 
     99 H99        24.1865   -3.4064   -4.0483 H         1 UNK         0.3024 
    100 H100       23.1280   -2.0860   -0.9930 H         1 UNK         0.1171 
    101 H101       21.9444   -4.2187   -0.5047 H         1 UNK         0.0786 
    102 H102       20.9509   -3.1992   -1.5309 H         1 UNK         0.0786 
    103 H103       21.8068   -4.5668   -2.2293 H         1 UNK         0.0786 
    104 H104       24.2172   -4.6512   -1.6193 H         1 UNK         0.2977 
    105 H105       25.6398    1.1508   -4.6992 H         1 UNK         0.3127 
    106 H106       25.4797    4.1205   -4.6061 H         1 UNK         0.0770 
    107 H107       23.4908    2.0323   -5.6572 H         1 UNK         0.0814 
    108 H108       23.2459    3.7716   -5.6250 H         1 UNK         0.0814 
    109 H109       23.3826    2.8806   -4.1179 H         1 UNK         0.0814 
    110 H110       25.4786    1.3587   -6.9090 H         1 UNK         0.2983 
    111 H111       26.2579    3.0263   -9.2060 H         1 UNK         0.0947 
    112 H112       26.0788    0.8559  -10.4166 H         1 UNK         0.0806 
    113 H113       24.6230    1.1666   -9.4837 H         1 UNK         0.0806 
    114 H114       25.8135    0.0056   -8.9002 H         1 UNK         0.0806 
    115 H115       28.1305    3.6498   -7.6621 H         1 UNK         0.3000 
    116 H116       30.2021    2.0647   -6.8669 H         1 UNK         0.0850 
    117 H117       31.5406    4.1777   -6.7682 H         1 UNK         0.0810 
    118 H118       29.9069    4.4123   -6.1708 H         1 UNK         0.0810 
    119 H119       30.3494    4.9838   -7.7810 H         1 UNK         0.0810 
    120 H120       29.7115    3.0478  -10.1605 H         1 UNK         0.3040 
    121 H121       32.2529    2.5830  -11.3073 H         1 UNK         0.0766 
    122 H122       30.3771    3.6681  -12.5234 H         1 UNK         0.0812 
    123 H123       29.4436    2.1709  -12.4746 H         1 UNK         0.0812 
    124 H124       30.9292    2.2584  -13.4107 H         1 UNK         0.0812 
    125 H125       29.9705    0.2739   -9.9674 H         1 UNK         0.3205 
    126 H126       30.7896   -2.1085  -11.2530 H         1 UNK         0.0754 
    127 H127       29.8771   -3.1829   -9.1561 H         1 UNK         0.0769 
    128 H128       28.7879   -1.9678   -9.8089 H         1 UNK         0.0769 
    129 H129       29.7827   -1.5919   -8.4060 H         1 UNK         0.0769 
    130 H130       32.4808   -0.1658   -8.8348 H         1 UNK         0.2981 
    131 H131       34.5096   -2.2540   -8.3421 H         1 UNK         0.0541 
    132 H132       34.0051   -0.2454  -11.0381 H         1 UNK         0.3459 
    133 H133       35.6936   -0.0637  -11.4394 H         1 UNK         0.3459 
    134 H134       34.0279    0.5213   -7.1669 H         1 UNK         0.0612 
    135 H135       35.5672   -0.2599   -6.9833 H         1 UNK         0.0612 
    136 H136       31.9939   -0.0541   -6.0932 H         1 UNK         0.0624 
    137 H137       31.6183   -1.7507   -6.2518 H         1 UNK         0.0624 
@<TRIPOS>BOND
     1    1    2 1    
     2    1   72 1    
     3    1   73 1    
     4    1   74 1    
     5    2    3 2    
     6    2    4 am   BACKBONE|DICT|INTERRES
     7    4    5 1    
     8    4   75 1    
     9    5    6 1    
    10    5   35 1    
    11    5   76 1    
    12    6    7 1    
    13    6   77 1    
    14    6   78 1    
    15    7    8 1    
    16    8    9 1    
    17    8   79 1    
    18    8   80 1    
    19    9   10 ar   
    20    9   14 ar   
    21   10   11 ar   
    22   10   81 1    
    23   11   12 ar   
    24   11   71 1    
    25   12   13 ar   
    26   12   82 1    
    27   13   14 ar   
    28   13   15 1    
    29   14   83 1    
    30   15   16 1    
    31   15   84 1    
    32   15   85 1    
    33   16   17 1    
    34   17   18 1    
    35   17   86 1    
    36   17   87 1    
    37   18   19 1    
    38   18   37 1    
    39   18   88 1    
    40   19   20 am   BACKBONE|DICT|INTERRES
    41   19   89 1    
    42   20   21 2    
    43   20   22 1    
    44   22   23 1    
    45   22   24 1    
    46   22   90 1    
    47   23   91 1    
    48   23   92 1    
    49   23   93 1    
    50   24   25 am   BACKBONE|DICT|INTERRES
    51   24   94 1    
    52   25   26 2    
    53   25   27 1    
    54   27   28 1    
    55   27   29 1    
    56   27   95 1    
    57   28   96 1    
    58   28   97 1    
    59   28   98 1    
    60   29   30 am   BACKBONE|DICT|INTERRES
    61   29   99 1    
    62   30   31 2    
    63   30   32 1    
    64   32   33 1    
    65   32   34 1    
    66   32  100 1    
    67   33  101 1    
    68   33  102 1    
    69   33  103 1    
    70   34   35 am   BACKBONE|DICT|INTERRES
    71   34  104 1    
    72   35   36 2    
    73   37   38 2    
    74   37   39 am   BACKBONE|DICT|INTERRES
    75   39   40 1    
    76   39  105 1    
    77   40   41 1    
    78   40   42 1    
    79   40  106 1    
    80   41  107 1    
    81   41  108 1    
    82   41  109 1    
    83   42   43 2    
    84   42   44 am   BACKBONE|DICT|INTERRES
    85   44   45 1    
    86   44  110 1    
    87   45   46 1    
    88   45   47 1    
    89   45  111 1    
    90   46  112 1    
    91   46  113 1    
    92   46  114 1    
    93   47   48 2    
    94   47   49 am   BACKBONE|DICT|INTERRES
    95   49   50 1    
    96   49  115 1    
    97   50   51 1    
    98   50   52 1    
    99   50  116 1    
   100   51  117 1    
   101   51  118 1    
   102   51  119 1    
   103   52   53 2    
   104   52   54 am   BACKBONE|DICT|INTERRES
   105   54   55 1    
   106   54  120 1    
   107   55   56 1    
   108   55   57 1    
   109   55  121 1    
   110   56  122 1    
   111   56  123 1    
   112   56  124 1    
   113   57   58 2    
   114   57   59 am   BACKBONE|DICT|INTERRES
   115   59   60 1    
   116   59  125 1    
   117   60   61 1    
   118   60   62 1    
   119   60  126 1    
   120   61  127 1    
   121   61  128 1    
   122   61  129 1    
   123   62   63 2    
   124   62   64 am   BACKBONE|DICT|INTERRES
   125   64   65 1    
   126   64  130 1    
   127   65   66 1    
   128   65   69 1    
   129   65  131 1    
   130   66   67 am   BACKBONE|DICT|INTERRES
   131   66   68 2    
   132   67  132 1    
   133   67  133 1    
   134   69   70 1    
   135   69  134 1    
   136   69  135 1    
   137   70   71 1    
   138   71  136 1    
   139   71  137 1    
@<TRIPOS>SUBSTRUCTURE
     1 UNK         1 GROUP             0       ****    0 ROOT    
