@<TRIPOS>MOLECULE
3R137
137   139    1
SMALL
USER_CHARGES


@<TRIPOS>ATOM
      1 CA         30.1625   -4.0107   -1.7330 C.3       0 UNK        -0.2020 
      2 C          29.4458   -2.8115   -1.1330 C.2       0 UNK         0.4855 
      3 O          29.1652   -2.8036    0.0655 O.2       0 UNK        -0.5197 
      4 N          29.1301   -1.8053   -1.9590 N.am      1 UNK        -0.4892 
      5 CA         28.4042   -0.5888   -1.5612 C.3       1 UNK         0.0835 
      6 C6         28.5659    0.5426   -2.6096 C.3       12 UNK        -0.0855 
      7 S7         30.2685    1.1984   -2.6497 S.3       12 UNK        -0.2931 
      8 C8         30.7604    0.9231   -4.3815 C.3       12 UNK         0.0378 
      9 C9         30.9763   -0.5507   -4.6913 C.ar      12 UNK        -0.0802 
     10 C10        31.9956   -1.2614   -4.0515 C.ar      12 UNK        -0.0944 
     11 C11        32.2172   -2.6096   -4.3469 C.ar      12 UNK        -0.0787 
     12 C12        31.3941   -3.2533   -5.2749 C.ar      12 UNK        -0.0862 
     13 C13        30.3783   -2.5505   -5.9286 C.ar      12 UNK        -0.0733 
     14 C14        30.1791   -1.1969   -5.6392 C.ar      12 UNK        -0.0832 
     15 C15        29.5242   -3.2506   -6.9738 C.3       12 UNK         0.0240 
     16 S16        28.2298   -4.2918   -6.2272 S.3       12 UNK        -0.2522 
     17 C17        27.0976   -3.0609   -5.5019 C.3       12 UNK        -0.0967 
     18 CA         26.1676   -2.3999   -6.5619 C.3       5 UNK         0.0660 
     19 N          24.7525   -2.5416   -6.2111 N.am      5 UNK        -0.4015 
     20 C          23.7435   -2.6545   -7.0849 C.2       4 UNK         0.4946 
     21 O          23.8952   -2.6654   -8.3070 O.2       4 UNK        -0.5353 
     22 CA         22.3214   -2.7980   -6.5079 C.3       4 UNK         0.0277 
     23 CB         21.9084   -4.2787   -6.4728 C.3       4 UNK        -0.1981 
     24 N          22.1774   -2.2289   -5.1645 N.am      4 UNK        -0.4209 
     25 C          22.0748   -0.9176   -4.9068 C.2       3 UNK         0.4942 
     26 O          22.0269   -0.0502   -5.7791 O.2       3 UNK        -0.5208 
     27 CA         22.0570   -0.4959   -3.4238 C.3       3 UNK         0.0250 
     28 CB         20.6149   -0.4703   -2.8919 C.3       3 UNK        -0.1990 
     29 N          22.8946   -1.3082   -2.5264 N.am      3 UNK        -0.4232 
     30 C          24.2019   -1.5448   -2.7004 C.2       2 UNK         0.4993 
     31 O          24.8222   -1.2164   -3.7126 O.2       2 UNK        -0.5286 
     32 CA         24.9409   -2.3166   -1.5972 C.3       2 UNK         0.0209 
     33 CB         24.7531   -3.8310   -1.7839 C.3       2 UNK        -0.1931 
     34 N          26.3733   -2.0069   -1.6342 N.am      2 UNK        -0.4546 
     35 C          26.9069   -0.8348   -1.2592 C.2       1 UNK         0.5154 
     36 O          26.2570    0.0505   -0.6994 O.2       1 UNK        -0.5181 
     37 C          26.5308   -0.9176   -6.7665 C.2       5 UNK         0.5014 
     38 O          27.3056   -0.6074   -7.6689 O.2       5 UNK        -0.5248 
     39 N          25.9628   -0.0333   -5.9325 N.am      6 UNK        -0.4434 
     40 CA         26.2220    1.4093   -5.8275 C.3       6 UNK         0.0363 
     41 CB         25.3827    1.9679   -4.6653 C.3       6 UNK        -0.1936 
     42 C          26.0127    2.2497   -7.1048 C.2       6 UNK         0.5081 
     43 O          26.3476    3.4350   -7.1003 O.2       6 UNK        -0.5248 
     44 N          25.4934    1.6422   -8.1799 N.am      7 UNK        -0.4718 
     45 CA         25.5372    2.1840   -9.5398 C.3       7 UNK         0.0273 
     46 CB         24.6648    1.3138  -10.4583 C.3       7 UNK        -0.1935 
     47 C          26.9762    2.2828  -10.0889 C.2       7 UNK         0.5018 
     48 O          27.2497    3.1750  -10.8931 O.2       7 UNK        -0.5186 
     49 N          27.8682    1.3901   -9.6347 N.am      8 UNK        -0.4240 
     50 CA         29.3099    1.4657   -9.8545 C.3       8 UNK         0.0235 
     51 CB         29.8896    0.0428   -9.9089 C.3       8 UNK        -0.2000 
     52 C          29.9469    2.2592   -8.7049 C.2       8 UNK         0.4941 
     53 O          29.5673    2.0702   -7.5477 O.2       8 UNK        -0.5273 
     54 N          30.9195    3.1164   -9.0373 N.am      9 UNK        -0.4262 
     55 CA         31.6193    3.9810   -8.0800 C.3       9 UNK         0.0264 
     56 CB         32.2620    5.1508   -8.8445 C.3       9 UNK        -0.1955 
     57 C          32.6781    3.2522   -7.2304 C.2       9 UNK         0.5031 
     58 O          33.1098    3.8011   -6.2154 O.2       9 UNK        -0.5390 
     59 N          33.0952    2.0563   -7.6577 N.am      10 UNK        -0.4204 
     60 CA         34.1094    1.2212   -7.0228 C.3       10 UNK         0.0237 
     61 CB         35.5150    1.7053   -7.4315 C.3       10 UNK        -0.1985 
     62 C          33.8733   -0.2365   -7.4345 C.2       10 UNK         0.4970 
     63 O          33.0391   -0.4989   -8.3052 O.2       10 UNK        -0.4914 
     64 N          34.6213   -1.1500   -6.8059 N.am      11 UNK        -0.4285 
     65 CA         34.5011   -2.6062   -6.9860 C.3       11 UNK         0.1007 
     66 C          34.9390   -3.1512   -8.3773 C.2       11 UNK         0.5703 
     67 N          35.6246   -2.3780   -9.2111 N.am      11 UNK        -0.7361 
     68 O          34.6495   -4.2996   -8.7049 O.2       11 UNK        -0.4986 
     69 C69        35.1906   -3.4069   -5.8430 C.3       12 UNK        -0.0947 
     70 S70        34.9800   -2.7209   -4.1617 S.3       12 UNK        -0.2240 
     71 C71        33.3504   -3.3631   -3.6665 C.3       12 UNK         0.0194 
     72 H72        31.2080   -4.0147   -1.4280 H         1 UNK         0.0906 
     73 H73        29.7035   -4.9358   -1.3854 H         1 UNK         0.0906 
     74 H74        30.1178   -4.0063   -2.8213 H         1 UNK         0.0906 
     75 H75        29.4438   -1.8332   -2.9197 H         1 UNK         0.3140 
     76 H76        28.8373   -0.2387   -0.6213 H         1 UNK         0.1085 
     77 H77        28.2643    0.1967   -3.5999 H         1 UNK         0.0836 
     78 H78        27.9142    1.3874   -2.3769 H         1 UNK         0.0836 
     79 H79        31.6872    1.4644   -4.5768 H         1 UNK         0.0731 
     80 H80        30.0083    1.3600   -5.0394 H         1 UNK         0.0731 
     81 H81        32.6262   -0.7602   -3.3297 H         1 UNK         0.1312 
     82 H82        31.5557   -4.2973   -5.5069 H         1 UNK         0.1406 
     83 H83        29.4131   -0.6397   -6.1610 H         1 UNK         0.1631 
     84 H84        30.1635   -3.8825   -7.5922 H         1 UNK         0.0717 
     85 H85        29.0726   -2.5309   -7.6560 H         1 UNK         0.0717 
     86 H86        26.5072   -3.5975   -4.7581 H         1 UNK         0.0934 
     87 H87        27.6699   -2.3360   -4.9201 H         1 UNK         0.0934 
     88 H88        26.3209   -2.8920   -7.5250 H         1 UNK         0.0739 
     89 H89        24.5325   -2.4338   -5.2278 H         1 UNK         0.3093 
     90 H90        21.6412   -2.2723   -7.1819 H         1 UNK         0.0818 
     91 H91        21.9757   -4.7258   -7.4658 H         1 UNK         0.0819 
     92 H92        22.5475   -4.8627   -5.8092 H         1 UNK         0.0819 
     93 H93        20.8778   -4.3957   -6.1371 H         1 UNK         0.0819 
     94 H94        22.1921   -2.8722   -4.3862 H         1 UNK         0.3041 
     95 H95        22.4492    0.5225   -3.3825 H         1 UNK         0.0784 
     96 H96        19.9746    0.1439   -3.5271 H         1 UNK         0.0793 
     97 H97        20.1785   -1.4693   -2.8584 H         1 UNK         0.0793 
     98 H98        20.5686   -0.0486   -1.8876 H         1 UNK         0.0793 
     99 H99        22.4519   -1.6377   -1.6802 H         1 UNK         0.3024 
    100 H100       24.5405   -2.0175   -0.6258 H         1 UNK         0.1171 
    101 H101       23.6996   -4.1072   -1.7232 H         1 UNK         0.0786 
    102 H102       25.1238   -4.1714   -2.7514 H         1 UNK         0.0786 
    103 H103       25.2765   -4.3923   -1.0095 H         1 UNK         0.0786 
    104 H104       26.9759   -2.6720   -2.0938 H         1 UNK         0.2977 
    105 H105       25.3822   -0.4165   -5.1870 H         1 UNK         0.3127 
    106 H106       27.2768    1.5194   -5.5680 H         1 UNK         0.0770 
    107 H107       24.3148    1.8474   -4.8516 H         1 UNK         0.0814 
    108 H108       25.5717    3.0317   -4.5156 H         1 UNK         0.0814 
    109 H109       25.6174    1.4659   -3.7263 H         1 UNK         0.0814 
    110 H110       25.2489    0.6668   -8.0881 H         1 UNK         0.2983 
    111 H111       25.1207    3.1935   -9.5187 H         1 UNK         0.0947 
    112 H112       25.0259    0.2853  -10.5028 H         1 UNK         0.0806 
    113 H113       24.6624    1.7037  -11.4772 H         1 UNK         0.0806 
    114 H114       23.6292    1.2919  -10.1182 H         1 UNK         0.0806 
    115 H115       27.5732    0.7226   -8.9237 H         1 UNK         0.3000 
    116 H116       29.5137    1.9631  -10.8053 H         1 UNK         0.0850 
    117 H117       30.9564    0.0634  -10.1346 H         1 UNK         0.0810 
    118 H118       29.4051   -0.5553  -10.6806 H         1 UNK         0.0810 
    119 H119       29.7707   -0.4779   -8.9576 H         1 UNK         0.0810 
    120 H120       31.1819    3.2103  -10.0086 H         1 UNK         0.3040 
    121 H121       30.8816    4.3940   -7.3881 H         1 UNK         0.0766 
    122 H122       31.5150    5.7278   -9.3902 H         1 UNK         0.0812 
    123 H123       33.0099    4.8048   -9.5592 H         1 UNK         0.0812 
    124 H124       32.7608    5.8382   -8.1596 H         1 UNK         0.0812 
    125 H125       32.6409    1.6232   -8.4520 H         1 UNK         0.3205 
    126 H126       33.9972    1.2841   -5.9382 H         1 UNK         0.0754 
    127 H127       36.2963    1.1117   -6.9557 H         1 UNK         0.0769 
    128 H128       35.6791    2.7416   -7.1353 H         1 UNK         0.0769 
    129 H129       35.6639    1.6405   -8.5101 H         1 UNK         0.0769 
    130 H130       35.2824   -0.8529   -6.1040 H         1 UNK         0.2981 
    131 H131       33.4355   -2.8240   -6.9339 H         1 UNK         0.0541 
    132 H132       35.8996   -2.7420  -10.1096 H         1 UNK         0.3459 
    133 H133       35.8610   -1.4339   -8.9532 H         1 UNK         0.3459 
    134 H134       34.8431   -4.4416   -5.8439 H         1 UNK         0.0612 
    135 H135       36.2665   -3.4541   -6.0216 H         1 UNK         0.0612 
    136 H136       33.2985   -4.4330   -3.8736 H         1 UNK         0.0624 
    137 H137       33.2499   -3.2523   -2.5863 H         1 UNK         0.0624 
@<TRIPOS>BOND
     1    1    2 1    
     2    1   72 1    
     3    1   73 1    
     4    1   74 1    
     5    2    3 2    
     6    2    4 am   BACKBONE|DICT|INTERRES
     7    4    5 1    
     8    4   75 1    
     9    5    6 1    
    10    5   35 1    
    11    5   76 1    
    12    6    7 1    
    13    6   77 1    
    14    6   78 1    
    15    7    8 1    
    16    8    9 1    
    17    8   79 1    
    18    8   80 1    
    19    9   10 ar   
    20    9   14 ar   
    21   10   11 ar   
    22   10   81 1    
    23   11   12 ar   
    24   11   71 1    
    25   12   13 ar   
    26   12   82 1    
    27   13   14 ar   
    28   13   15 1    
    29   14   83 1    
    30   15   16 1    
    31   15   84 1    
    32   15   85 1    
    33   16   17 1    
    34   17   18 1    
    35   17   86 1    
    36   17   87 1    
    37   18   19 1    
    38   18   37 1    
    39   18   88 1    
    40   19   20 am   BACKBONE|DICT|INTERRES
    41   19   89 1    
    42   20   21 2    
    43   20   22 1    
    44   22   23 1    
    45   22   24 1    
    46   22   90 1    
    47   23   91 1    
    48   23   92 1    
    49   23   93 1    
    50   24   25 am   BACKBONE|DICT|INTERRES
    51   24   94 1    
    52   25   26 2    
    53   25   27 1    
    54   27   28 1    
    55   27   29 1    
    56   27   95 1    
    57   28   96 1    
    58   28   97 1    
    59   28   98 1    
    60   29   30 am   BACKBONE|DICT|INTERRES
    61   29   99 1    
    62   30   31 2    
    63   30   32 1    
    64   32   33 1    
    65   32   34 1    
    66   32  100 1    
    67   33  101 1    
    68   33  102 1    
    69   33  103 1    
    70   34   35 am   BACKBONE|DICT|INTERRES
    71   34  104 1    
    72   35   36 2    
    73   37   38 2    
    74   37   39 am   BACKBONE|DICT|INTERRES
    75   39   40 1    
    76   39  105 1    
    77   40   41 1    
    78   40   42 1    
    79   40  106 1    
    80   41  107 1    
    81   41  108 1    
    82   41  109 1    
    83   42   43 2    
    84   42   44 am   BACKBONE|DICT|INTERRES
    85   44   45 1    
    86   44  110 1    
    87   45   46 1    
    88   45   47 1    
    89   45  111 1    
    90   46  112 1    
    91   46  113 1    
    92   46  114 1    
    93   47   48 2    
    94   47   49 am   BACKBONE|DICT|INTERRES
    95   49   50 1    
    96   49  115 1    
    97   50   51 1    
    98   50   52 1    
    99   50  116 1    
   100   51  117 1    
   101   51  118 1    
   102   51  119 1    
   103   52   53 2    
   104   52   54 am   BACKBONE|DICT|INTERRES
   105   54   55 1    
   106   54  120 1    
   107   55   56 1    
   108   55   57 1    
   109   55  121 1    
   110   56  122 1    
   111   56  123 1    
   112   56  124 1    
   113   57   58 2    
   114   57   59 am   BACKBONE|DICT|INTERRES
   115   59   60 1    
   116   59  125 1    
   117   60   61 1    
   118   60   62 1    
   119   60  126 1    
   120   61  127 1    
   121   61  128 1    
   122   61  129 1    
   123   62   63 2    
   124   62   64 am   BACKBONE|DICT|INTERRES
   125   64   65 1    
   126   64  130 1    
   127   65   66 1    
   128   65   69 1    
   129   65  131 1    
   130   66   67 am   BACKBONE|DICT|INTERRES
   131   66   68 2    
   132   67  132 1    
   133   67  133 1    
   134   69   70 1    
   135   69  134 1    
   136   69  135 1    
   137   70   71 1    
   138   71  136 1    
   139   71  137 1    
@<TRIPOS>SUBSTRUCTURE
     1 UNK         1 GROUP             0       ****    0 ROOT    
