@<TRIPOS>MOLECULE
3R137
137   139    1
SMALL
USER_CHARGES


@<TRIPOS>ATOM
      1 CA         26.0820   -6.5545   -4.5707 C.3       0 UNK        -0.2020 
      2 C          26.2313   -5.7475   -3.2904 C.2       0 UNK         0.4855 
      3 O          25.2295   -5.4265   -2.6495 O.2       0 UNK        -0.5197 
      4 N          27.4728   -5.4054   -2.9173 N.am      1 UNK        -0.4892 
      5 CA         27.8069   -4.5622   -1.7630 C.3       1 UNK         0.0835 
      6 C6         29.3400   -4.4733   -1.5643 C.3       12 UNK        -0.0855 
      7 S7         29.8070   -3.7061    0.0284 S.3       12 UNK        -0.2931 
      8 C8         31.4752   -3.0502   -0.3238 C.3       12 UNK         0.0378 
      9 C9         31.4890   -2.0763   -1.4956 C.ar      12 UNK        -0.0802 
     10 C10        32.2127   -2.3799   -2.6536 C.ar      12 UNK        -0.0944 
     11 C11        32.1840   -1.5206   -3.7561 C.ar      12 UNK        -0.0787 
     12 C12        31.4211   -0.3503   -3.6925 C.ar      12 UNK        -0.0862 
     13 C13        30.7063   -0.0266   -2.5364 C.ar      12 UNK        -0.0733 
     14 C14        30.7563   -0.8871   -1.4353 C.ar      12 UNK        -0.0832 
     15 C15        29.8546    1.2328   -2.4869 C.3       12 UNK         0.0240 
     16 S16        28.0908    0.7979   -2.4146 S.3       12 UNK        -0.2522 
     17 C17        27.3411    1.9379   -3.6183 C.3       12 UNK        -0.0967 
     18 CA         27.4344    1.4411   -5.0835 C.3       5 UNK         0.0660 
     19 N          26.9968    0.0481   -5.2547 N.am      5 UNK        -0.4015 
     20 C          26.9556   -0.6288   -6.4149 C.2       4 UNK         0.4946 
     21 O          27.1717   -0.1242   -7.5165 O.2       4 UNK        -0.5353 
     22 CA         26.5726   -2.1141   -6.3458 C.3       4 UNK         0.0277 
     23 CB         27.8273   -2.9887   -6.1825 C.3       4 UNK        -0.1981 
     24 N          25.6215   -2.3899   -5.2661 N.am      4 UNK        -0.4209 
     25 C          24.3081   -2.1218   -5.3435 C.2       3 UNK         0.4942 
     26 O          23.7722   -1.6392   -6.3416 O.2       3 UNK        -0.5208 
     27 CA         23.4324   -2.4380   -4.1175 C.3       3 UNK         0.0250 
     28 CB         22.7009   -3.7763   -4.3094 C.3       3 UNK        -0.1990 
     29 N          24.1853   -2.4664   -2.8620 N.am      3 UNK        -0.4232 
     30 C          24.6198   -1.3672   -2.2264 C.2       2 UNK         0.4993 
     31 O          24.3790   -0.2215   -2.6080 O.2       2 UNK        -0.5286 
     32 CA         25.4899   -1.5707   -0.9704 C.3       2 UNK         0.0209 
     33 CB         24.6195   -1.5239    0.2956 C.3       2 UNK        -0.1931 
     34 N          26.2807   -2.8073   -0.9669 N.am      2 UNK        -0.4546 
     35 C          27.1526   -3.1728   -1.9178 C.2       1 UNK         0.5154 
     36 O          27.3889   -2.5025   -2.9243 O.2       1 UNK        -0.5181 
     37 C          26.7164    2.4392   -6.0131 C.2       5 UNK         0.5014 
     38 O          27.3565    3.3571   -6.5324 O.2       5 UNK        -0.5248 
     39 N          25.4103    2.2150   -6.2196 N.am      6 UNK        -0.4434 
     40 CA         24.5247    3.0048   -7.0766 C.3       6 UNK         0.0363 
     41 CB         23.0798    2.5195   -6.8771 C.3       6 UNK        -0.1936 
     42 C          24.8942    2.9817   -8.5713 C.2       6 UNK         0.5081 
     43 O          24.5105    3.9040   -9.2902 O.2       6 UNK        -0.5248 
     44 N          25.6480    1.9678   -9.0187 N.am      7 UNK        -0.4718 
     45 CA         26.1495    1.8361  -10.3896 C.3       7 UNK         0.0273 
     46 CB         26.1284    0.3480  -10.7866 C.3       7 UNK        -0.1935 
     47 C          27.5436    2.4772  -10.5513 C.2       7 UNK         0.5018 
     48 O          28.3652    1.9594  -11.3088 O.2       7 UNK        -0.5186 
     49 N          27.7790    3.5920   -9.8397 N.am      8 UNK        -0.4240 
     50 CA         29.0252    4.3621   -9.7517 C.3       8 UNK         0.0235 
     51 CB         29.3819    5.0037  -11.1100 C.3       8 UNK        -0.2000 
     52 C          30.1658    3.5145   -9.1634 C.2       8 UNK         0.4941 
     53 O          31.1640    3.2551   -9.8402 O.2       8 UNK        -0.5273 
     54 N          29.9665    3.0606   -7.9175 N.am      9 UNK        -0.4262 
     55 CA         30.8221    2.1582   -7.1339 C.3       9 UNK         0.0264 
     56 CB         32.2542    2.7023   -6.9551 C.3       9 UNK        -0.1955 
     57 C          30.8191    0.7150   -7.6658 C.2       9 UNK         0.5031 
     58 O          30.5016   -0.1984   -6.9075 O.2       9 UNK        -0.5390 
     59 N          31.1657    0.5441   -8.9496 N.am      10 UNK        -0.4204 
     60 CA         31.2117   -0.7150   -9.7047 C.3       10 UNK         0.0237 
     61 CB         29.7853   -1.2599   -9.9288 C.3       10 UNK        -0.1985 
     62 C          32.1691   -1.7720   -9.1132 C.2       10 UNK         0.4970 
     63 O          31.9101   -2.9706   -9.2378 O.2       10 UNK        -0.4914 
     64 N          33.2672   -1.3156   -8.4953 N.am      11 UNK        -0.4285 
     65 CA         34.3017   -2.1723   -7.8913 C.3       11 UNK         0.1007 
     66 C          35.2461   -2.8690   -8.9152 C.2       11 UNK         0.5703 
     67 N          35.2337   -2.5054  -10.1926 N.am      11 UNK        -0.7361 
     68 O          36.0005   -3.7643   -8.5422 O.2       11 UNK        -0.4986 
     69 C69        35.1238   -1.4163   -6.8106 C.3       12 UNK        -0.0947 
     70 S70        34.1579   -0.6049   -5.4876 S.3       12 UNK        -0.2240 
     71 C71        32.9399   -1.8800   -5.0287 C.3       12 UNK         0.0194 
     72 H72        25.5234   -5.9816   -5.3105 H         1 UNK         0.0906 
     73 H73        27.0472   -6.8175   -5.0030 H         1 UNK         0.0906 
     74 H74        25.5373   -7.4769   -4.3711 H         1 UNK         0.0906 
     75 H75        28.2535   -5.6799   -3.4962 H         1 UNK         0.3140 
     76 H76        27.3819   -5.0517   -0.8839 H         1 UNK         0.1085 
     77 H77        29.7774   -5.4728   -1.5828 H         1 UNK         0.0836 
     78 H78        29.7916   -3.9321   -2.3970 H         1 UNK         0.0836 
     79 H79        32.1501   -3.8880   -0.5062 H         1 UNK         0.0731 
     80 H80        31.8508   -2.5424    0.5655 H         1 UNK         0.0731 
     81 H81        32.7815   -3.2983   -2.7048 H         1 UNK         0.1312 
     82 H82        31.3820    0.3043   -4.5510 H         1 UNK         0.1406 
     83 H83        30.1870   -0.6526   -0.5458 H         1 UNK         0.1631 
     84 H84        30.0524    1.8627   -3.3554 H         1 UNK         0.0717 
     85 H85        30.1175    1.8231   -1.6081 H         1 UNK         0.0717 
     86 H86        26.2961    2.0647   -3.3266 H         1 UNK         0.0934 
     87 H87        27.8051    2.9207   -3.5106 H         1 UNK         0.0934 
     88 H88        28.4845    1.4427   -5.3656 H         1 UNK         0.0739 
     89 H89        26.8367   -0.4654   -4.3978 H         1 UNK         0.3093 
     90 H90        26.1037   -2.3796   -7.2960 H         1 UNK         0.0818 
     91 H91        28.4984   -2.8612   -7.0329 H         1 UNK         0.0819 
     92 H92        28.3961   -2.7262   -5.2901 H         1 UNK         0.0819 
     93 H93        27.5734   -4.0468   -6.1238 H         1 UNK         0.0819 
     94 H94        26.0168   -2.7087   -4.3873 H         1 UNK         0.3041 
     95 H95        22.6774   -1.6519   -4.0452 H         1 UNK         0.0784 
     96 H96        23.3970   -4.6063   -4.4307 H         1 UNK         0.0793 
     97 H97        22.0537   -4.0016   -3.4616 H         1 UNK         0.0793 
     98 H98        22.0707   -3.7502   -5.1995 H         1 UNK         0.0793 
     99 H99        24.4477   -3.3791   -2.5055 H         1 UNK         0.3024 
    100 H100       26.1919   -0.7372   -0.9283 H         1 UNK         0.1171 
    101 H101       25.2290   -1.5572    1.1989 H         1 UNK         0.0786 
    102 H102       24.0373   -0.6019    0.3349 H         1 UNK         0.0786 
    103 H103       23.9151   -2.3560    0.3325 H         1 UNK         0.0786 
    104 H104       26.1271   -3.4324   -0.1888 H         1 UNK         0.2977 
    105 H105       24.9938    1.4161   -5.7626 H         1 UNK         0.3127 
    106 H106       24.5877    4.0435   -6.7455 H         1 UNK         0.0770 
    107 H107       22.9635    1.4727   -7.1624 H         1 UNK         0.0814 
    108 H108       22.3841    3.1018   -7.4831 H         1 UNK         0.0814 
    109 H109       22.7649    2.6222   -5.8385 H         1 UNK         0.0814 
    110 H110       25.9921    1.2760   -8.3575 H         1 UNK         0.2983 
    111 H111       25.4842    2.3649  -11.0756 H         1 UNK         0.0947 
    112 H112       26.4440    0.2100  -11.8215 H         1 UNK         0.0806 
    113 H113       25.1259   -0.0704  -10.6977 H         1 UNK         0.0806 
    114 H114       26.7932   -0.2456  -10.1593 H         1 UNK         0.0806 
    115 H115       27.0306    3.9102   -9.2389 H         1 UNK         0.3000 
    116 H116       28.8418    5.1728   -9.0446 H         1 UNK         0.0850 
    117 H117       30.2615    5.6418  -11.0177 H         1 UNK         0.0810 
    118 H118       28.5672    5.6255  -11.4809 H         1 UNK         0.0810 
    119 H119       29.6055    4.2555  -11.8710 H         1 UNK         0.0810 
    120 H120       29.0764    3.2860   -7.4785 H         1 UNK         0.3040 
    121 H121       30.3869    2.1332   -6.1369 H         1 UNK         0.0766 
    122 H122       32.8127    2.7271   -7.8907 H         1 UNK         0.0812 
    123 H123       32.8188    2.0777   -6.2620 H         1 UNK         0.0812 
    124 H124       32.2449    3.7118   -6.5445 H         1 UNK         0.0812 
    125 H125       31.3643    1.3934   -9.4758 H         1 UNK         0.3205 
    126 H126       31.6198   -0.4620  -10.6841 H         1 UNK         0.0754 
    127 H127       29.7908   -2.1396  -10.5733 H         1 UNK         0.0769 
    128 H128       29.1554   -0.5135  -10.4109 H         1 UNK         0.0769 
    129 H129       29.3077   -1.5423   -8.9902 H         1 UNK         0.0769 
    130 H130       33.4133   -0.3201   -8.4265 H         1 UNK         0.2981 
    131 H131       33.7870   -2.9945   -7.3924 H         1 UNK         0.0541 
    132 H132       34.6211   -1.7727  -10.5112 H         1 UNK         0.3459 
    133 H133       35.8480   -2.9693  -10.8432 H         1 UNK         0.3459 
    134 H134       35.7402   -0.6480   -7.2807 H         1 UNK         0.0612 
    135 H135       35.8196   -2.1010   -6.3221 H         1 UNK         0.0612 
    136 H136       32.2204   -2.0074   -5.8380 H         1 UNK         0.0624 
    137 H137       33.4558   -2.8342   -4.9117 H         1 UNK         0.0624 
@<TRIPOS>BOND
     1    1    2 1    
     2    1   72 1    
     3    1   73 1    
     4    1   74 1    
     5    2    3 2    
     6    2    4 am   BACKBONE|DICT|INTERRES
     7    4    5 1    
     8    4   75 1    
     9    5    6 1    
    10    5   35 1    
    11    5   76 1    
    12    6    7 1    
    13    6   77 1    
    14    6   78 1    
    15    7    8 1    
    16    8    9 1    
    17    8   79 1    
    18    8   80 1    
    19    9   10 ar   
    20    9   14 ar   
    21   10   11 ar   
    22   10   81 1    
    23   11   12 ar   
    24   11   71 1    
    25   12   13 ar   
    26   12   82 1    
    27   13   14 ar   
    28   13   15 1    
    29   14   83 1    
    30   15   16 1    
    31   15   84 1    
    32   15   85 1    
    33   16   17 1    
    34   17   18 1    
    35   17   86 1    
    36   17   87 1    
    37   18   19 1    
    38   18   37 1    
    39   18   88 1    
    40   19   20 am   BACKBONE|DICT|INTERRES
    41   19   89 1    
    42   20   21 2    
    43   20   22 1    
    44   22   23 1    
    45   22   24 1    
    46   22   90 1    
    47   23   91 1    
    48   23   92 1    
    49   23   93 1    
    50   24   25 am   BACKBONE|DICT|INTERRES
    51   24   94 1    
    52   25   26 2    
    53   25   27 1    
    54   27   28 1    
    55   27   29 1    
    56   27   95 1    
    57   28   96 1    
    58   28   97 1    
    59   28   98 1    
    60   29   30 am   BACKBONE|DICT|INTERRES
    61   29   99 1    
    62   30   31 2    
    63   30   32 1    
    64   32   33 1    
    65   32   34 1    
    66   32  100 1    
    67   33  101 1    
    68   33  102 1    
    69   33  103 1    
    70   34   35 am   BACKBONE|DICT|INTERRES
    71   34  104 1    
    72   35   36 2    
    73   37   38 2    
    74   37   39 am   BACKBONE|DICT|INTERRES
    75   39   40 1    
    76   39  105 1    
    77   40   41 1    
    78   40   42 1    
    79   40  106 1    
    80   41  107 1    
    81   41  108 1    
    82   41  109 1    
    83   42   43 2    
    84   42   44 am   BACKBONE|DICT|INTERRES
    85   44   45 1    
    86   44  110 1    
    87   45   46 1    
    88   45   47 1    
    89   45  111 1    
    90   46  112 1    
    91   46  113 1    
    92   46  114 1    
    93   47   48 2    
    94   47   49 am   BACKBONE|DICT|INTERRES
    95   49   50 1    
    96   49  115 1    
    97   50   51 1    
    98   50   52 1    
    99   50  116 1    
   100   51  117 1    
   101   51  118 1    
   102   51  119 1    
   103   52   53 2    
   104   52   54 am   BACKBONE|DICT|INTERRES
   105   54   55 1    
   106   54  120 1    
   107   55   56 1    
   108   55   57 1    
   109   55  121 1    
   110   56  122 1    
   111   56  123 1    
   112   56  124 1    
   113   57   58 2    
   114   57   59 am   BACKBONE|DICT|INTERRES
   115   59   60 1    
   116   59  125 1    
   117   60   61 1    
   118   60   62 1    
   119   60  126 1    
   120   61  127 1    
   121   61  128 1    
   122   61  129 1    
   123   62   63 2    
   124   62   64 am   BACKBONE|DICT|INTERRES
   125   64   65 1    
   126   64  130 1    
   127   65   66 1    
   128   65   69 1    
   129   65  131 1    
   130   66   67 am   BACKBONE|DICT|INTERRES
   131   66   68 2    
   132   67  132 1    
   133   67  133 1    
   134   69   70 1    
   135   69  134 1    
   136   69  135 1    
   137   70   71 1    
   138   71  136 1    
   139   71  137 1    
@<TRIPOS>SUBSTRUCTURE
     1 UNK         1 GROUP             0       ****    0 ROOT    
