@<TRIPOS>MOLECULE
3R137
137   139    1
SMALL
USER_CHARGES


@<TRIPOS>ATOM
      1 CA         28.5895   -2.8821    2.9095 C.3       0 UNK        -0.2020 
      2 C          28.6861   -1.7571    1.8901 C.2       0 UNK         0.4855 
      3 O          28.5159   -0.5912    2.2470 O.2       0 UNK        -0.5197 
      4 N          28.9579   -2.0978    0.6233 N.am      1 UNK        -0.4892 
      5 CA         29.0969   -1.1460   -0.4910 C.3       1 UNK         0.0835 
      6 C6         29.8301   -1.7716   -1.7023 C.3       12 UNK        -0.0855 
      7 S7         31.4797   -2.4175   -1.2555 S.3       12 UNK        -0.2931 
      8 C8         31.3052   -4.1938   -1.6300 C.3       12 UNK         0.0378 
      9 C9         31.1687   -4.4339   -3.1261 C.ar      12 UNK        -0.0802 
     10 C10        32.2435   -4.1549   -3.9722 C.ar      12 UNK        -0.0944 
     11 C11        32.1140   -4.2962   -5.3553 C.ar      12 UNK        -0.0787 
     12 C12        30.9172   -4.7809   -5.8897 C.ar      12 UNK        -0.0862 
     13 C13        29.8301   -5.0609   -5.0532 C.ar      12 UNK        -0.0733 
     14 C14        29.9653   -4.8922   -3.6709 C.ar      12 UNK        -0.0832 
     15 C15        28.4896   -5.4945   -5.6377 C.3       12 UNK         0.0240 
     16 S16        27.8547   -4.3556   -6.9175 S.3       12 UNK        -0.2522 
     17 C17        28.1147   -2.7211   -6.1494 C.3       12 UNK        -0.0967 
     18 CA         27.5863   -1.5844   -7.0513 C.3       5 UNK         0.0660 
     19 N          26.1224   -1.5868   -7.1345 N.am      5 UNK        -0.4015 
     20 C          25.3829   -0.7668   -7.8938 C.2       4 UNK         0.4946 
     21 O          25.8617    0.0858   -8.6409 O.2       4 UNK        -0.5353 
     22 CA         23.8555   -0.8633   -7.7601 C.3       4 UNK         0.0277 
     23 CB         23.2851   -1.7801   -8.8534 C.3       4 UNK        -0.1981 
     24 N          23.3829   -1.3120   -6.4443 N.am      4 UNK        -0.4209 
     25 C          23.6679   -0.7316   -5.2685 C.2       3 UNK         0.4942 
     26 O          24.4217    0.2385   -5.1531 O.2       3 UNK        -0.5208 
     27 CA         22.9695   -1.3172   -4.0256 C.3       3 UNK         0.0250 
     28 CB         22.7304   -2.8434   -4.1123 C.3       3 UNK        -0.1990 
     29 N          23.6482   -0.9647   -2.7726 N.am      3 UNK        -0.4232 
     30 C          24.8652   -1.3533   -2.3639 C.2       2 UNK         0.4993 
     31 O          25.6165   -2.0893   -3.0106 O.2       2 UNK        -0.5286 
     32 CA         25.2740   -0.8592   -0.9642 C.3       2 UNK         0.0209 
     33 CB         24.3419   -1.4346    0.1193 C.3       2 UNK        -0.1931 
     34 N          26.6440   -1.2446   -0.6300 N.am      2 UNK        -0.4546 
     35 C          27.7444   -0.5445   -0.9326 C.2       1 UNK         0.5154 
     36 O          27.7254    0.5392   -1.5170 O.2       1 UNK        -0.5181 
     37 C          28.1889   -0.2307   -6.6194 C.2       5 UNK         0.5014 
     38 O          29.3369    0.0444   -6.9720 O.2       5 UNK        -0.5248 
     39 N          27.4161    0.6080   -5.9148 N.am      6 UNK        -0.4434 
     40 CA         27.8105    1.9678   -5.5482 C.3       6 UNK         0.0363 
     41 CB         26.8142    2.5174   -4.5155 C.3       6 UNK        -0.1936 
     42 C          27.9122    2.9313   -6.7471 C.2       6 UNK         0.5081 
     43 O          28.6107    3.9382   -6.6292 O.2       6 UNK        -0.5248 
     44 N          27.2185    2.6330   -7.8569 N.am      7 UNK        -0.4718 
     45 CA         27.0993    3.5193   -9.0184 C.3       7 UNK         0.0273 
     46 CB         25.6504    4.0261   -9.1181 C.3       7 UNK        -0.1935 
     47 C          27.5217    2.8452  -10.3306 C.2       7 UNK         0.5018 
     48 O          28.2490    3.4625  -11.1084 O.2       7 UNK        -0.5186 
     49 N          27.0540    1.6122  -10.5712 N.am      8 UNK        -0.4240 
     50 CA         27.2944    0.8621  -11.8062 C.3       8 UNK         0.0235 
     51 CB         26.2459   -0.2546  -11.9537 C.3       8 UNK        -0.2000 
     52 C          28.7186    0.2966  -11.8562 C.2       8 UNK         0.4941 
     53 O          29.4326    0.5319  -12.8316 O.2       8 UNK        -0.5273 
     54 N          29.1107   -0.4160  -10.7907 N.am      9 UNK        -0.4262 
     55 CA         30.4797   -0.9052  -10.5990 C.3       9 UNK         0.0264 
     56 CB         30.4680   -2.1291   -9.6685 C.3       9 UNK        -0.1955 
     57 C          31.4117    0.1930  -10.0538 C.2       9 UNK         0.5031 
     58 O          32.6193    0.1224  -10.2845 O.2       9 UNK        -0.5390 
     59 N          30.8278    1.1816   -9.3567 N.am      10 UNK        -0.4204 
     60 CA         31.4677    2.3279   -8.7027 C.3       10 UNK         0.0237 
     61 CB         32.0873    3.2819   -9.7458 C.3       10 UNK        -0.1985 
     62 C          32.4536    1.9077   -7.5953 C.2       10 UNK         0.4970 
     63 O          33.5124    2.5213   -7.4471 O.2       10 UNK        -0.4914 
     64 N          32.0840    0.8689   -6.8362 N.am      11 UNK        -0.4285 
     65 CA         32.8813    0.3146   -5.7314 C.3       11 UNK         0.1007 
     66 C          32.7574    1.1107   -4.3993 C.2       11 UNK         0.5703 
     67 N          31.8681    2.0909   -4.2852 N.am      11 UNK        -0.7361 
     68 O          33.4971    0.8453   -3.4550 O.2       11 UNK        -0.4986 
     69 C69        32.5870   -1.1911   -5.5119 C.3       12 UNK        -0.0947 
     70 S70        32.9116   -2.2115   -6.9927 S.3       12 UNK        -0.2240 
     71 C71        33.2449   -3.8526   -6.2699 C.3       12 UNK         0.0194 
     72 H72        29.3234   -2.7343    3.7014 H         1 UNK         0.0906 
     73 H73        27.5982   -2.8943    3.3619 H         1 UNK         0.0906 
     74 H74        28.7691   -3.8585    2.4597 H         1 UNK         0.0906 
     75 H75        29.1189   -3.0675    0.3924 H         1 UNK         0.3140 
     76 H76        29.7023   -0.3090   -0.1348 H         1 UNK         0.1085 
     77 H77        29.9721   -1.0266   -2.4883 H         1 UNK         0.0836 
     78 H78        29.2239   -2.5626   -2.1466 H         1 UNK         0.0836 
     79 H79        32.1865   -4.7213   -1.2622 H         1 UNK         0.0731 
     80 H80        30.4529   -4.6016   -1.0846 H         1 UNK         0.0731 
     81 H81        33.1647   -3.7737   -3.5530 H         1 UNK         0.1312 
     82 H82        30.8108   -4.8801   -6.9615 H         1 UNK         0.1406 
     83 H83        29.1252   -5.0940   -3.0201 H         1 UNK         0.1631 
     84 H84        28.5952   -6.4899   -6.0708 H         1 UNK         0.0717 
     85 H85        27.7361   -5.5785   -4.8530 H         1 UNK         0.0717 
     86 H86        27.6429   -2.6965   -5.1645 H         1 UNK         0.0934 
     87 H87        29.1865   -2.5981   -5.9802 H         1 UNK         0.0934 
     88 H88        27.9474   -1.7597   -8.0656 H         1 UNK         0.0739 
     89 H89        25.6456   -2.2525   -6.5444 H         1 UNK         0.3093 
     90 H90        23.4604    0.1424   -7.9176 H         1 UNK         0.0818 
     91 H91        22.1950   -1.7718   -8.8515 H         1 UNK         0.0819 
     92 H92        23.6064   -1.4529   -9.8437 H         1 UNK         0.0819 
     93 H93        23.6149   -2.8124   -8.7291 H         1 UNK         0.0819 
     94 H94        22.7513   -2.1000   -6.4415 H         1 UNK         0.3041 
     95 H95        21.9926   -0.8338   -3.9783 H         1 UNK         0.0784 
     96 H96        22.0198   -3.0957   -4.8998 H         1 UNK         0.0793 
     97 H97        23.6529   -3.3906   -4.3115 H         1 UNK         0.0793 
     98 H98        22.3138   -3.2289   -3.1815 H         1 UNK         0.0793 
     99 H99        23.1322   -0.3336   -2.1757 H         1 UNK         0.3024 
    100 H100       25.1968    0.2308   -0.9556 H         1 UNK         0.1171 
    101 H101       24.3414   -2.5255    0.1128 H         1 UNK         0.0786 
    102 H102       24.6436   -1.1071    1.1146 H         1 UNK         0.0786 
    103 H103       23.3112   -1.1079   -0.0225 H         1 UNK         0.0786 
    104 H104       26.7655   -2.1402   -0.1814 H         1 UNK         0.2977 
    105 H105       26.4715    0.3288   -5.6675 H         1 UNK         0.3127 
    106 H106       28.7952    1.9168   -5.0788 H         1 UNK         0.0770 
    107 H107       25.8141    2.6237   -4.9380 H         1 UNK         0.0814 
    108 H108       27.1242    3.5001   -4.1579 H         1 UNK         0.0814 
    109 H109       26.7406    1.8643   -3.6463 H         1 UNK         0.0814 
    110 H110       26.6981    1.7623   -7.8911 H         1 UNK         0.2983 
    111 H111       27.7461    4.3915   -8.8982 H         1 UNK         0.0947 
    112 H112       25.5220    4.6800   -9.9819 H         1 UNK         0.0806 
    113 H113       25.3724    4.6003   -8.2342 H         1 UNK         0.0806 
    114 H114       24.9396    3.2049   -9.2198 H         1 UNK         0.0806 
    115 H115       26.4856    1.1449   -9.8646 H         1 UNK         0.3000 
    116 H116       27.1762    1.5451  -12.6506 H         1 UNK         0.0850 
    117 H117       26.3902   -0.8027  -12.8857 H         1 UNK         0.0810 
    118 H118       25.2352    0.1533  -11.9715 H         1 UNK         0.0810 
    119 H119       26.2973   -0.9780  -11.1394 H         1 UNK         0.0810 
    120 H120       28.4467   -0.5798  -10.0487 H         1 UNK         0.3040 
    121 H121       30.8745   -1.2265  -11.5655 H         1 UNK         0.0766 
    122 H122       30.2324   -1.8604   -8.6393 H         1 UNK         0.0812 
    123 H123       31.4488   -2.6057   -9.6550 H         1 UNK         0.0812 
    124 H124       29.7501   -2.8806   -9.9971 H         1 UNK         0.0812 
    125 H125       29.8371    1.0920   -9.1864 H         1 UNK         0.3205 
    126 H126       30.6685    2.8731   -8.1998 H         1 UNK         0.0754 
    127 H127       32.4454    4.1979   -9.2744 H         1 UNK         0.0769 
    128 H128       31.3543    3.5715  -10.4993 H         1 UNK         0.0769 
    129 H129       32.9349    2.8267  -10.2589 H         1 UNK         0.0769 
    130 H130       31.1715    0.4449   -6.9863 H         1 UNK         0.2981 
    131 H131       33.9328    0.3904   -6.0150 H         1 UNK         0.0541 
    132 H132       31.2719    2.3304   -5.0596 H         1 UNK         0.3459 
    133 H133       31.8080    2.6030   -3.4197 H         1 UNK         0.3459 
    134 H134       31.5479   -1.3393   -5.2110 H         1 UNK         0.0612 
    135 H135       33.2041   -1.5731   -4.6972 H         1 UNK         0.0612 
    136 H136       33.3750   -4.5770   -7.0750 H         1 UNK         0.0624 
    137 H137       34.1909   -3.8195   -5.7273 H         1 UNK         0.0624 
@<TRIPOS>BOND
     1    1    2 1    
     2    1   72 1    
     3    1   73 1    
     4    1   74 1    
     5    2    3 2    
     6    2    4 am   BACKBONE|DICT|INTERRES
     7    4    5 1    
     8    4   75 1    
     9    5    6 1    
    10    5   35 1    
    11    5   76 1    
    12    6    7 1    
    13    6   77 1    
    14    6   78 1    
    15    7    8 1    
    16    8    9 1    
    17    8   79 1    
    18    8   80 1    
    19    9   10 ar   
    20    9   14 ar   
    21   10   11 ar   
    22   10   81 1    
    23   11   12 ar   
    24   11   71 1    
    25   12   13 ar   
    26   12   82 1    
    27   13   14 ar   
    28   13   15 1    
    29   14   83 1    
    30   15   16 1    
    31   15   84 1    
    32   15   85 1    
    33   16   17 1    
    34   17   18 1    
    35   17   86 1    
    36   17   87 1    
    37   18   19 1    
    38   18   37 1    
    39   18   88 1    
    40   19   20 am   BACKBONE|DICT|INTERRES
    41   19   89 1    
    42   20   21 2    
    43   20   22 1    
    44   22   23 1    
    45   22   24 1    
    46   22   90 1    
    47   23   91 1    
    48   23   92 1    
    49   23   93 1    
    50   24   25 am   BACKBONE|DICT|INTERRES
    51   24   94 1    
    52   25   26 2    
    53   25   27 1    
    54   27   28 1    
    55   27   29 1    
    56   27   95 1    
    57   28   96 1    
    58   28   97 1    
    59   28   98 1    
    60   29   30 am   BACKBONE|DICT|INTERRES
    61   29   99 1    
    62   30   31 2    
    63   30   32 1    
    64   32   33 1    
    65   32   34 1    
    66   32  100 1    
    67   33  101 1    
    68   33  102 1    
    69   33  103 1    
    70   34   35 am   BACKBONE|DICT|INTERRES
    71   34  104 1    
    72   35   36 2    
    73   37   38 2    
    74   37   39 am   BACKBONE|DICT|INTERRES
    75   39   40 1    
    76   39  105 1    
    77   40   41 1    
    78   40   42 1    
    79   40  106 1    
    80   41  107 1    
    81   41  108 1    
    82   41  109 1    
    83   42   43 2    
    84   42   44 am   BACKBONE|DICT|INTERRES
    85   44   45 1    
    86   44  110 1    
    87   45   46 1    
    88   45   47 1    
    89   45  111 1    
    90   46  112 1    
    91   46  113 1    
    92   46  114 1    
    93   47   48 2    
    94   47   49 am   BACKBONE|DICT|INTERRES
    95   49   50 1    
    96   49  115 1    
    97   50   51 1    
    98   50   52 1    
    99   50  116 1    
   100   51  117 1    
   101   51  118 1    
   102   51  119 1    
   103   52   53 2    
   104   52   54 am   BACKBONE|DICT|INTERRES
   105   54   55 1    
   106   54  120 1    
   107   55   56 1    
   108   55   57 1    
   109   55  121 1    
   110   56  122 1    
   111   56  123 1    
   112   56  124 1    
   113   57   58 2    
   114   57   59 am   BACKBONE|DICT|INTERRES
   115   59   60 1    
   116   59  125 1    
   117   60   61 1    
   118   60   62 1    
   119   60  126 1    
   120   61  127 1    
   121   61  128 1    
   122   61  129 1    
   123   62   63 2    
   124   62   64 am   BACKBONE|DICT|INTERRES
   125   64   65 1    
   126   64  130 1    
   127   65   66 1    
   128   65   69 1    
   129   65  131 1    
   130   66   67 am   BACKBONE|DICT|INTERRES
   131   66   68 2    
   132   67  132 1    
   133   67  133 1    
   134   69   70 1    
   135   69  134 1    
   136   69  135 1    
   137   70   71 1    
   138   71  136 1    
   139   71  137 1    
@<TRIPOS>SUBSTRUCTURE
     1 UNK         1 GROUP             0       ****    0 ROOT    
