@<TRIPOS>MOLECULE
3R137
137   139    1
SMALL
USER_CHARGES


@<TRIPOS>ATOM
      1 CA         24.9823   -5.2802    1.7502 C.3       0 UNK        -0.2020 
      2 C          25.3392   -3.8020    1.7134 C.2       0 UNK         0.4855 
      3 O          24.7002   -3.0000    2.3947 O.2       0 UNK        -0.5197 
      4 N          26.3558   -3.4344    0.9229 N.am      1 UNK        -0.4892 
      5 CA         26.8221   -2.0533    0.7372 C.3       1 UNK         0.0835 
      6 C6         28.2690   -2.0108    0.1873 C.3       12 UNK        -0.0855 
      7 S7         28.4787   -2.9033   -1.3903 S.3       12 UNK        -0.2931 
      8 C8         30.2564   -2.6233   -1.6917 C.3       12 UNK         0.0378 
      9 C9         30.6970   -2.9372   -3.1199 C.ar      12 UNK        -0.0802 
     10 C10        31.7400   -2.2018   -3.6912 C.ar      12 UNK        -0.0944 
     11 C11        32.1702   -2.4624   -4.9961 C.ar      12 UNK        -0.0787 
     12 C12        31.5428   -3.4665   -5.7400 C.ar      12 UNK        -0.0862 
     13 C13        30.5075   -4.2194   -5.1776 C.ar      12 UNK        -0.0733 
     14 C14        30.1013   -3.9599   -3.8665 C.ar      12 UNK        -0.0832 
     15 C15        29.8412   -5.3342   -5.9703 C.3       12 UNK         0.0240 
     16 S16        28.6792   -4.7044   -7.2212 S.3       12 UNK        -0.2522 
     17 C17        27.3755   -3.9096   -6.2158 C.3       12 UNK        -0.0967 
     18 CA         26.9827   -2.5292   -6.7959 C.3       5 UNK         0.0660 
     19 N          25.6122   -2.1424   -6.4670 N.am      5 UNK        -0.4015 
     20 C          24.5998   -2.1476   -7.3463 C.2       4 UNK         0.4946 
     21 O          24.6441   -2.7144   -8.4388 O.2       4 UNK        -0.5353 
     22 CA         23.3218   -1.3640   -6.9819 C.3       4 UNK         0.0277 
     23 CB         22.1978   -2.3330   -6.5790 C.3       4 UNK        -0.1981 
     24 N          23.4857   -0.3634   -5.9230 N.am      4 UNK        -0.4209 
     25 C          24.3822    0.6345   -5.8878 C.2       3 UNK         0.4942 
     26 O          25.1732    0.8881   -6.7969 O.2       3 UNK        -0.5208 
     27 CA         24.4824    1.4181   -4.5670 C.3       3 UNK         0.0250 
     28 CB         23.6314    2.6954   -4.6367 C.3       3 UNK        -0.1990 
     29 N          24.1022    0.6411   -3.3776 N.am      3 UNK        -0.4232 
     30 C          24.6399   -0.5279   -2.9951 C.2       2 UNK         0.4993 
     31 O          25.5274   -1.1175   -3.6206 O.2       2 UNK        -0.5286 
     32 CA         24.0057   -1.1937   -1.7662 C.3       2 UNK         0.0209 
     33 CB         22.9761   -2.2460   -2.2103 C.3       2 UNK        -0.1931 
     34 N          25.0078   -1.8385   -0.9203 N.am      2 UNK        -0.4546 
     35 C          25.8562   -1.1915   -0.1091 C.2       1 UNK         0.5154 
     36 O          25.8797    0.0351    0.0096 O.2       1 UNK        -0.5181 
     37 C          27.9634   -1.4029   -6.4166 C.2       5 UNK         0.5014 
     38 O          28.8113   -1.0652   -7.2399 O.2       5 UNK        -0.5248 
     39 N          27.8169   -0.7966   -5.2265 N.am      6 UNK        -0.4434 
     40 CA         28.7521    0.1985   -4.6823 C.3       6 UNK         0.0363 
     41 CB         28.3564    0.5426   -3.2373 C.3       6 UNK        -0.1936 
     42 C          28.9080    1.4924   -5.5040 C.2       6 UNK         0.5081 
     43 O          29.9598    2.1249   -5.4124 O.2       6 UNK        -0.5248 
     44 N          27.8775    1.8785   -6.2680 N.am      7 UNK        -0.4718 
     45 CA         27.9179    3.0192   -7.1876 C.3       7 UNK         0.0273 
     46 CB         26.7136    3.9360   -6.9153 C.3       7 UNK        -0.1935 
     47 C          27.9256    2.5649   -8.6561 C.2       7 UNK         0.5018 
     48 O          28.4182    3.3080   -9.5056 O.2       7 UNK        -0.5186 
     49 N          27.3662    1.3797   -8.9397 N.am      8 UNK        -0.4240 
     50 CA         27.2746    0.8064  -10.2835 C.3       8 UNK         0.0235 
     51 CB         26.2010   -0.2914  -10.2943 C.3       8 UNK        -0.2000 
     52 C          28.6115    0.2557  -10.8103 C.2       8 UNK         0.4941 
     53 O          28.8629    0.3556  -12.0128 O.2       8 UNK        -0.5273 
     54 N          29.4313   -0.3308   -9.9266 N.am      9 UNK        -0.4262 
     55 CA         30.7560   -0.8647  -10.2510 C.3       9 UNK         0.0264 
     56 CB         31.1748   -1.8643   -9.1577 C.3       9 UNK        -0.1955 
     57 C          31.8060    0.2495  -10.4050 C.2       9 UNK         0.5031 
     58 O          31.5566    1.4046  -10.0502 O.2       9 UNK        -0.5390 
     59 N          32.9931   -0.1356  -10.8956 N.am      10 UNK        -0.4204 
     60 CA         34.1490    0.7372  -11.1466 C.3       10 UNK         0.0237 
     61 CB         35.2771   -0.0965  -11.7774 C.3       10 UNK        -0.1985 
     62 C          34.6750    1.5094   -9.9193 C.2       10 UNK         0.4970 
     63 O          35.3672    2.5123  -10.0999 O.2       10 UNK        -0.4914 
     64 N          34.3344    1.0502   -8.7083 N.am      11 UNK        -0.4285 
     65 CA         34.5552    1.7699   -7.4474 C.3       11 UNK         0.1007 
     66 C          33.6890    3.0538   -7.2635 C.2       11 UNK         0.5703 
     67 N          32.6408    3.2762   -8.0493 N.am      11 UNK        -0.7361 
     68 O          33.9935    3.8760   -6.4022 O.2       11 UNK        -0.4986 
     69 C69        34.4613    0.8190   -6.2256 C.3       12 UNK        -0.0947 
     70 S70        32.8326    0.0129   -6.0322 S.3       12 UNK        -0.2240 
     71 C71        33.3327   -1.6738   -5.5793 C.3       12 UNK         0.0194 
     72 H72        25.0738   -5.6629    2.7664 H         1 UNK         0.0906 
     73 H73        23.9533   -5.4260    1.4225 H         1 UNK         0.0906 
     74 H74        25.6308   -5.8732    1.1055 H         1 UNK         0.0906 
     75 H75        26.8524   -4.1292    0.3813 H         1 UNK         0.3140 
     76 H76        26.8437   -1.5849    1.7241 H         1 UNK         0.1085 
     77 H77        28.5986   -0.9774    0.0601 H         1 UNK         0.0836 
     78 H78        28.9483   -2.4500    0.9199 H         1 UNK         0.0836 
     79 H79        30.4850   -1.5812   -1.4625 H         1 UNK         0.0731 
     80 H80        30.8372   -3.2326   -0.9982 H         1 UNK         0.0731 
     81 H81        32.2235   -1.4205   -3.1205 H         1 UNK         0.1312 
     82 H82        31.8641   -3.6711   -6.7520 H         1 UNK         0.1406 
     83 H83        29.3119   -4.5558   -3.4302 H         1 UNK         0.1631 
     84 H84        29.3140   -6.0225   -5.3078 H         1 UNK         0.0717 
     85 H85        30.6083   -5.9256   -6.4723 H         1 UNK         0.0717 
     86 H86        26.5141   -4.5792   -6.2355 H         1 UNK         0.0934 
     87 H87        27.6642   -3.8325   -5.1673 H         1 UNK         0.0934 
     88 H88        27.0543   -2.6060   -7.8830 H         1 UNK         0.0739 
     89 H89        25.4734   -1.6865   -5.5716 H         1 UNK         0.3093 
     90 H90        23.0119   -0.8294   -7.8820 H         1 UNK         0.0818 
     91 H91        21.2554   -1.8077   -6.4226 H         1 UNK         0.0819 
     92 H92        22.0242   -3.0765   -7.3584 H         1 UNK         0.0819 
     93 H93        22.4398   -2.8729   -5.6625 H         1 UNK         0.0819 
     94 H94        22.8917   -0.4757   -5.1152 H         1 UNK         0.3041 
     95 H95        25.5253    1.7136   -4.4459 H         1 UNK         0.0784 
     96 H96        23.8997    3.2992   -5.5046 H         1 UNK         0.0793 
     97 H97        22.5672    2.4694   -4.7151 H         1 UNK         0.0793 
     98 H98        23.7791    3.3195   -3.7551 H         1 UNK         0.0793 
     99 H99        23.3672    1.0389   -2.8097 H         1 UNK         0.3024 
    100 H100       23.4955   -0.4334   -1.1700 H         1 UNK         0.1171 
    101 H101       22.1853   -1.7942   -2.8105 H         1 UNK         0.0786 
    102 H102       22.4975   -2.7192   -1.3525 H         1 UNK         0.0786 
    103 H103       23.4350   -3.0311   -2.8133 H         1 UNK         0.0786 
    104 H104       25.0913   -2.8417   -0.9883 H         1 UNK         0.2977 
    105 H105       27.0692   -1.0829   -4.5972 H         1 UNK         0.3127 
    106 H106       29.7343   -0.2783   -4.6577 H         1 UNK         0.0770 
    107 H107       27.3980    1.0582   -3.1890 H         1 UNK         0.0814 
    108 H108       29.0996    1.1930   -2.7745 H         1 UNK         0.0814 
    109 H109       28.2813   -0.3500   -2.6208 H         1 UNK         0.0814 
    110 H110       27.0315    1.3193   -6.2816 H         1 UNK         0.2983 
    111 H111       28.8259    3.6057   -7.0308 H         1 UNK         0.0947 
    112 H112       26.7662    4.8360   -7.5293 H         1 UNK         0.0806 
    113 H113       26.6838    4.2551   -5.8734 H         1 UNK         0.0806 
    114 H114       25.7683    3.4445   -7.1448 H         1 UNK         0.0806 
    115 H115       26.9318    0.8608   -8.1889 H         1 UNK         0.3000 
    116 H116       26.9527    1.5974  -10.9646 H         1 UNK         0.0850 
    117 H117       26.0434   -0.6723  -11.3041 H         1 UNK         0.0810 
    118 H118       25.2419    0.0809   -9.9331 H         1 UNK         0.0810 
    119 H119       26.4896   -1.1372   -9.6713 H         1 UNK         0.0810 
    120 H120       29.1567   -0.3862   -8.9477 H         1 UNK         0.3040 
    121 H121       30.6883   -1.3998  -11.2006 H         1 UNK         0.0766 
    122 H122       32.1201   -2.3525   -9.3953 H         1 UNK         0.0812 
    123 H123       30.4300   -2.6512   -9.0353 H         1 UNK         0.0812 
    124 H124       31.2939   -1.3733   -8.1916 H         1 UNK         0.0812 
    125 H125       33.1104   -1.1063  -11.1495 H         1 UNK         0.3205 
    126 H126       33.8310    1.4863  -11.8746 H         1 UNK         0.0754 
    127 H127       36.1421    0.5266  -12.0098 H         1 UNK         0.0769 
    128 H128       34.9565   -0.5591  -12.7112 H         1 UNK         0.0769 
    129 H129       35.6166   -0.8877  -11.1076 H         1 UNK         0.0769 
    130 H130       33.7445    0.2348   -8.6484 H         1 UNK         0.2981 
    131 H131       35.5861    2.1281   -7.4759 H         1 UNK         0.0541 
    132 H132       32.3523    2.5945   -8.7458 H         1 UNK         0.3459 
    133 H133       32.0968    4.1122   -7.9147 H         1 UNK         0.3459 
    134 H134       34.6897    1.3554   -5.3029 H         1 UNK         0.0612 
    135 H135       35.2309    0.0509   -6.3153 H         1 UNK         0.0612 
    136 H136       33.7421   -2.1744   -6.4580 H         1 UNK         0.0624 
    137 H137       34.1364   -1.6288   -4.8427 H         1 UNK         0.0624 
@<TRIPOS>BOND
     1    1    2 1    
     2    1   72 1    
     3    1   73 1    
     4    1   74 1    
     5    2    3 2    
     6    2    4 am   BACKBONE|DICT|INTERRES
     7    4    5 1    
     8    4   75 1    
     9    5    6 1    
    10    5   35 1    
    11    5   76 1    
    12    6    7 1    
    13    6   77 1    
    14    6   78 1    
    15    7    8 1    
    16    8    9 1    
    17    8   79 1    
    18    8   80 1    
    19    9   10 ar   
    20    9   14 ar   
    21   10   11 ar   
    22   10   81 1    
    23   11   12 ar   
    24   11   71 1    
    25   12   13 ar   
    26   12   82 1    
    27   13   14 ar   
    28   13   15 1    
    29   14   83 1    
    30   15   16 1    
    31   15   84 1    
    32   15   85 1    
    33   16   17 1    
    34   17   18 1    
    35   17   86 1    
    36   17   87 1    
    37   18   19 1    
    38   18   37 1    
    39   18   88 1    
    40   19   20 am   BACKBONE|DICT|INTERRES
    41   19   89 1    
    42   20   21 2    
    43   20   22 1    
    44   22   23 1    
    45   22   24 1    
    46   22   90 1    
    47   23   91 1    
    48   23   92 1    
    49   23   93 1    
    50   24   25 am   BACKBONE|DICT|INTERRES
    51   24   94 1    
    52   25   26 2    
    53   25   27 1    
    54   27   28 1    
    55   27   29 1    
    56   27   95 1    
    57   28   96 1    
    58   28   97 1    
    59   28   98 1    
    60   29   30 am   BACKBONE|DICT|INTERRES
    61   29   99 1    
    62   30   31 2    
    63   30   32 1    
    64   32   33 1    
    65   32   34 1    
    66   32  100 1    
    67   33  101 1    
    68   33  102 1    
    69   33  103 1    
    70   34   35 am   BACKBONE|DICT|INTERRES
    71   34  104 1    
    72   35   36 2    
    73   37   38 2    
    74   37   39 am   BACKBONE|DICT|INTERRES
    75   39   40 1    
    76   39  105 1    
    77   40   41 1    
    78   40   42 1    
    79   40  106 1    
    80   41  107 1    
    81   41  108 1    
    82   41  109 1    
    83   42   43 2    
    84   42   44 am   BACKBONE|DICT|INTERRES
    85   44   45 1    
    86   44  110 1    
    87   45   46 1    
    88   45   47 1    
    89   45  111 1    
    90   46  112 1    
    91   46  113 1    
    92   46  114 1    
    93   47   48 2    
    94   47   49 am   BACKBONE|DICT|INTERRES
    95   49   50 1    
    96   49  115 1    
    97   50   51 1    
    98   50   52 1    
    99   50  116 1    
   100   51  117 1    
   101   51  118 1    
   102   51  119 1    
   103   52   53 2    
   104   52   54 am   BACKBONE|DICT|INTERRES
   105   54   55 1    
   106   54  120 1    
   107   55   56 1    
   108   55   57 1    
   109   55  121 1    
   110   56  122 1    
   111   56  123 1    
   112   56  124 1    
   113   57   58 2    
   114   57   59 am   BACKBONE|DICT|INTERRES
   115   59   60 1    
   116   59  125 1    
   117   60   61 1    
   118   60   62 1    
   119   60  126 1    
   120   61  127 1    
   121   61  128 1    
   122   61  129 1    
   123   62   63 2    
   124   62   64 am   BACKBONE|DICT|INTERRES
   125   64   65 1    
   126   64  130 1    
   127   65   66 1    
   128   65   69 1    
   129   65  131 1    
   130   66   67 am   BACKBONE|DICT|INTERRES
   131   66   68 2    
   132   67  132 1    
   133   67  133 1    
   134   69   70 1    
   135   69  134 1    
   136   69  135 1    
   137   70   71 1    
   138   71  136 1    
   139   71  137 1    
@<TRIPOS>SUBSTRUCTURE
     1 UNK         1 GROUP             0       ****    0 ROOT    
