@<TRIPOS>MOLECULE
3R137
137   139    1
SMALL
USER_CHARGES


@<TRIPOS>ATOM
      1 CA         30.2244    1.4431   -2.0390 C.3       0 UNK        -0.2020 
      2 C          29.0393    1.8014   -1.1475 C.2       0 UNK         0.4855 
      3 O          28.8291    2.9791   -0.8651 O.2       0 UNK        -0.5197 
      4 N          28.2381    0.8357   -0.6844 N.am      1 UNK        -0.4892 
      5 CA         28.3012   -0.5975   -0.9673 C.3       1 UNK         0.0835 
      6 C6         29.2214   -1.3440    0.0356 C.3       12 UNK        -0.0855 
      7 S7         29.7154   -3.0007   -0.5474 S.3       12 UNK        -0.2931 
      8 C8         31.0617   -2.5903   -1.7113 C.3       12 UNK         0.0378 
      9 C9         31.1531   -3.5579   -2.8876 C.ar      12 UNK        -0.0802 
     10 C10        32.4044   -3.9535   -3.3700 C.ar      12 UNK        -0.0944 
     11 C11        32.5061   -4.7883   -4.4880 C.ar      12 UNK        -0.0787 
     12 C12        31.3434   -5.2436   -5.1181 C.ar      12 UNK        -0.0862 
     13 C13        30.0862   -4.8590   -4.6447 C.ar      12 UNK        -0.0733 
     14 C14        30.0002   -4.0163   -3.5346 C.ar      12 UNK        -0.0832 
     15 C15        28.8155   -5.3459   -5.3270 C.3       12 UNK         0.0240 
     16 S16        28.3913   -4.3469   -6.7888 S.3       12 UNK        -0.2522 
     17 C17        28.2815   -2.6664   -6.0893 C.3       12 UNK        -0.0967 
     18 CA         27.4801   -1.7248   -7.0164 C.3       5 UNK         0.0660 
     19 N          26.0441   -2.0118   -6.9904 N.am      5 UNK        -0.4015 
     20 C          25.1538   -1.5318   -7.8682 C.2       4 UNK         0.4946 
     21 O          25.4463   -0.8002   -8.8143 O.2       4 UNK        -0.5353 
     22 CA         23.6824   -1.9072   -7.6265 C.3       4 UNK         0.0277 
     23 CB         23.4018   -3.3444   -8.0946 C.3       4 UNK        -0.1981 
     24 N          23.2784   -1.7527   -6.2254 N.am      4 UNK        -0.4209 
     25 C          23.2136   -0.5737   -5.5909 C.2       3 UNK         0.4942 
     26 O          23.4840    0.5044   -6.1184 O.2       3 UNK        -0.5208 
     27 CA         22.8132   -0.5974   -4.1056 C.3       3 UNK         0.0250 
     28 CB         21.2898   -0.7465   -3.9606 C.3       3 UNK        -0.1990 
     29 N          23.4885   -1.6063   -3.2766 N.am      3 UNK        -0.4232 
     30 C          24.8104   -1.8207   -3.2257 C.2       2 UNK         0.4993 
     31 O          25.6222   -1.3397   -4.0191 O.2       2 UNK        -0.5286 
     32 CA         25.3312   -2.7353   -2.1056 C.3       2 UNK         0.0209 
     33 CB         25.4572   -4.1808   -2.6124 C.3       2 UNK        -0.1931 
     34 N          26.6463   -2.2657   -1.6624 N.am      2 UNK        -0.4546 
     35 C          26.8540   -1.1254   -0.9916 C.2       1 UNK         0.5154 
     36 O          25.9537   -0.4788   -0.4459 O.2       1 UNK        -0.5181 
     37 C          27.7696   -0.2500   -6.6904 C.2       5 UNK         0.5014 
     38 O          28.6232    0.3476   -7.3450 O.2       5 UNK        -0.5248 
     39 N          27.0435    0.3175   -5.7177 N.am      6 UNK        -0.4434 
     40 CA         27.1057    1.7301   -5.3438 C.3       6 UNK         0.0363 
     41 CB         26.2741    1.9654   -4.0730 C.3       6 UNK        -0.1936 
     42 C          26.6527    2.6598   -6.4822 C.2       6 UNK         0.5081 
     43 O          27.3286    3.6533   -6.7476 O.2       6 UNK        -0.5248 
     44 N          25.5499    2.3060   -7.1600 N.am      7 UNK        -0.4718 
     45 CA         25.0304    3.0208   -8.3308 C.3       7 UNK         0.0273 
     46 CB         23.6353    2.4862   -8.6910 C.3       7 UNK        -0.1935 
     47 C          25.9693    2.9448   -9.5464 C.2       7 UNK         0.5018 
     48 O          26.1477    3.9506  -10.2344 O.2       7 UNK        -0.5186 
     49 N          26.5677    1.7675   -9.7767 N.am      8 UNK        -0.4240 
     50 CA         27.5645    1.5351  -10.8266 C.3       8 UNK         0.0235 
     51 CB         27.7168    0.0202  -11.0430 C.3       8 UNK        -0.2000 
     52 C          28.9397    2.1639  -10.5302 C.2       8 UNK         0.4941 
     53 O          29.7375    2.3043  -11.4579 O.2       8 UNK        -0.5273 
     54 N          29.2016    2.4918   -9.2552 N.am      9 UNK        -0.4262 
     55 CA         30.4861    2.9089   -8.6796 C.3       9 UNK         0.0264 
     56 CB         30.9351    4.2759   -9.2381 C.3       9 UNK        -0.1955 
     57 C          31.5603    1.8095   -8.8115 C.2       9 UNK         0.5031 
     58 O          32.7200    2.1033   -9.1125 O.2       9 UNK        -0.5390 
     59 N          31.1446    0.5539   -8.6004 N.am      10 UNK        -0.4204 
     60 CA         31.9933   -0.6325   -8.6814 C.3       10 UNK         0.0237 
     61 CB         31.1073   -1.8799   -8.8288 C.3       10 UNK        -0.1985 
     62 C          32.8967   -0.7513   -7.4457 C.2       10 UNK         0.4970 
     63 O          32.4641   -0.4214   -6.3389 O.2       10 UNK        -0.4914 
     64 N          34.1230   -1.2410   -7.6680 N.am      11 UNK        -0.4285 
     65 CA         35.1627   -1.4827   -6.6498 C.3       11 UNK         0.1007 
     66 C          35.7164   -0.1986   -5.9564 C.2       11 UNK         0.5703 
     67 N          35.4765    0.9969   -6.4833 N.am      11 UNK        -0.7361 
     68 O          36.4098   -0.2847   -4.9453 O.2       11 UNK        -0.4986 
     69 C69        34.7668   -2.5931   -5.6331 C.3       12 UNK        -0.0947 
     70 S70        34.3736   -4.1802   -6.4442 S.3       12 UNK        -0.2240 
     71 C71        33.8719   -5.1962   -5.0201 C.3       12 UNK         0.0194 
     72 H72        30.8893    0.7395   -1.5408 H         1 UNK         0.0906 
     73 H73        30.8069    2.3340   -2.2733 H         1 UNK         0.0906 
     74 H74        29.8888    1.0125   -2.9822 H         1 UNK         0.0906 
     75 H75        27.4132    1.0895   -0.1527 H         1 UNK         0.3140 
     76 H76        28.6827   -0.7298   -1.9810 H         1 UNK         0.1085 
     77 H77        28.7346   -1.4415    1.0080 H         1 UNK         0.0836 
     78 H78        30.1310   -0.7712    0.2226 H         1 UNK         0.0836 
     79 H79        30.9164   -1.5905   -2.1190 H         1 UNK         0.0731 
     80 H80        32.0010   -2.5645   -1.1564 H         1 UNK         0.0731 
     81 H81        33.3040   -3.5950   -2.8883 H         1 UNK         0.1312 
     82 H82        31.4174   -5.8862   -5.9851 H         1 UNK         0.1406 
     83 H83        29.0274   -3.7120   -3.1800 H         1 UNK         0.1631 
     84 H84        27.9773   -5.3377   -4.6294 H         1 UNK         0.0717 
     85 H85        28.9405   -6.3848   -5.6356 H         1 UNK         0.0717 
     86 H86        27.8262   -2.7049   -5.0983 H         1 UNK         0.0934 
     87 H87        29.3021   -2.3058   -5.9426 H         1 UNK         0.0934 
     88 H88        27.8249   -1.8832   -8.0408 H         1 UNK         0.0739 
     89 H89        25.7092   -2.5543   -6.2082 H         1 UNK         0.3093 
     90 H90        23.0701   -1.2303   -8.2266 H         1 UNK         0.0818 
     91 H91        23.6849   -3.4749   -9.1401 H         1 UNK         0.0819 
     92 H92        23.9589   -4.0796   -7.5125 H         1 UNK         0.0819 
     93 H93        22.3419   -3.5869   -8.0160 H         1 UNK         0.0819 
     94 H94        23.0451   -2.5904   -5.7124 H         1 UNK         0.3041 
     95 H95        23.0912    0.3744   -3.6928 H         1 UNK         0.0784 
     96 H96        20.7649    0.0003   -4.5584 H         1 UNK         0.0793 
     97 H97        20.9453   -1.7278   -4.2891 H         1 UNK         0.0793 
     98 H98        20.9733   -0.6083   -2.9265 H         1 UNK         0.0793 
     99 H99        22.9048   -2.0783   -2.6008 H         1 UNK         0.3024 
    100 H100       24.6422   -2.7043   -1.2583 H         1 UNK         0.1171 
    101 H101       24.4842   -4.5789   -2.9033 H         1 UNK         0.0786 
    102 H102       26.1093   -4.2482   -3.4838 H         1 UNK         0.0786 
    103 H103       25.8576   -4.8391   -1.8410 H         1 UNK         0.0786 
    104 H104       27.4449   -2.7466   -2.0452 H         1 UNK         0.2977 
    105 H105       26.3975   -0.2684   -5.1871 H         1 UNK         0.3127 
    106 H106       28.1477    1.9653   -5.1167 H         1 UNK         0.0770 
    107 H107       25.2188    1.7436   -4.2347 H         1 UNK         0.0814 
    108 H108       26.3452    3.0036   -3.7466 H         1 UNK         0.0814 
    109 H109       26.6215    1.3413   -3.2497 H         1 UNK         0.0814 
    110 H110       25.0135    1.5015   -6.8446 H         1 UNK         0.2983 
    111 H111       24.9308    4.0741   -8.0597 H         1 UNK         0.0947 
    112 H112       23.2283    3.0056   -9.5595 H         1 UNK         0.0806 
    113 H113       22.9331    2.6292   -7.8696 H         1 UNK         0.0806 
    114 H114       23.6598    1.4215   -8.9268 H         1 UNK         0.0806 
    115 H115       26.3048    0.9657   -9.2096 H         1 UNK         0.3000 
    116 H116       27.1952    1.9787  -11.7537 H         1 UNK         0.0850 
    117 H117       28.4277   -0.1935  -11.8423 H         1 UNK         0.0810 
    118 H118       26.7679   -0.4385  -11.3219 H         1 UNK         0.0810 
    119 H119       28.0776   -0.4790  -10.1429 H         1 UNK         0.0810 
    120 H120       28.4800    2.2881   -8.5744 H         1 UNK         0.3040 
    121 H121       30.3090    3.0319   -7.6099 H         1 UNK         0.0766 
    122 H122       31.1931    4.2187  -10.2958 H         1 UNK         0.0812 
    123 H123       31.8162    4.6414   -8.7096 H         1 UNK         0.0812 
    124 H124       30.1531    5.0264   -9.1224 H         1 UNK         0.0812 
    125 H125       30.1966    0.4200   -8.2499 H         1 UNK         0.3205 
    126 H126       32.6171   -0.5451   -9.5738 H         1 UNK         0.0754 
    127 H127       31.7132   -2.7813   -8.9310 H         1 UNK         0.0769 
    128 H128       30.4691   -1.8140   -9.7102 H         1 UNK         0.0769 
    129 H129       30.4654   -2.0194   -7.9601 H         1 UNK         0.0769 
    130 H130       34.3864   -1.4777   -8.6134 H         1 UNK         0.2981 
    131 H131       36.0178   -1.8624   -7.2099 H         1 UNK         0.0541 
    132 H132       35.8515    1.8172   -6.0341 H         1 UNK         0.3459 
    133 H133       34.9091    1.0887   -7.3115 H         1 UNK         0.3459 
    134 H134       33.9122   -2.2717   -5.0374 H         1 UNK         0.0612 
    135 H135       35.5796   -2.7808   -4.9296 H         1 UNK         0.0612 
    136 H136       33.8443   -6.2424   -5.3283 H         1 UNK         0.0624 
    137 H137       34.6298   -5.1284   -4.2381 H         1 UNK         0.0624 
@<TRIPOS>BOND
     1    1    2 1    
     2    1   72 1    
     3    1   73 1    
     4    1   74 1    
     5    2    3 2    
     6    2    4 am   BACKBONE|DICT|INTERRES
     7    4    5 1    
     8    4   75 1    
     9    5    6 1    
    10    5   35 1    
    11    5   76 1    
    12    6    7 1    
    13    6   77 1    
    14    6   78 1    
    15    7    8 1    
    16    8    9 1    
    17    8   79 1    
    18    8   80 1    
    19    9   10 ar   
    20    9   14 ar   
    21   10   11 ar   
    22   10   81 1    
    23   11   12 ar   
    24   11   71 1    
    25   12   13 ar   
    26   12   82 1    
    27   13   14 ar   
    28   13   15 1    
    29   14   83 1    
    30   15   16 1    
    31   15   84 1    
    32   15   85 1    
    33   16   17 1    
    34   17   18 1    
    35   17   86 1    
    36   17   87 1    
    37   18   19 1    
    38   18   37 1    
    39   18   88 1    
    40   19   20 am   BACKBONE|DICT|INTERRES
    41   19   89 1    
    42   20   21 2    
    43   20   22 1    
    44   22   23 1    
    45   22   24 1    
    46   22   90 1    
    47   23   91 1    
    48   23   92 1    
    49   23   93 1    
    50   24   25 am   BACKBONE|DICT|INTERRES
    51   24   94 1    
    52   25   26 2    
    53   25   27 1    
    54   27   28 1    
    55   27   29 1    
    56   27   95 1    
    57   28   96 1    
    58   28   97 1    
    59   28   98 1    
    60   29   30 am   BACKBONE|DICT|INTERRES
    61   29   99 1    
    62   30   31 2    
    63   30   32 1    
    64   32   33 1    
    65   32   34 1    
    66   32  100 1    
    67   33  101 1    
    68   33  102 1    
    69   33  103 1    
    70   34   35 am   BACKBONE|DICT|INTERRES
    71   34  104 1    
    72   35   36 2    
    73   37   38 2    
    74   37   39 am   BACKBONE|DICT|INTERRES
    75   39   40 1    
    76   39  105 1    
    77   40   41 1    
    78   40   42 1    
    79   40  106 1    
    80   41  107 1    
    81   41  108 1    
    82   41  109 1    
    83   42   43 2    
    84   42   44 am   BACKBONE|DICT|INTERRES
    85   44   45 1    
    86   44  110 1    
    87   45   46 1    
    88   45   47 1    
    89   45  111 1    
    90   46  112 1    
    91   46  113 1    
    92   46  114 1    
    93   47   48 2    
    94   47   49 am   BACKBONE|DICT|INTERRES
    95   49   50 1    
    96   49  115 1    
    97   50   51 1    
    98   50   52 1    
    99   50  116 1    
   100   51  117 1    
   101   51  118 1    
   102   51  119 1    
   103   52   53 2    
   104   52   54 am   BACKBONE|DICT|INTERRES
   105   54   55 1    
   106   54  120 1    
   107   55   56 1    
   108   55   57 1    
   109   55  121 1    
   110   56  122 1    
   111   56  123 1    
   112   56  124 1    
   113   57   58 2    
   114   57   59 am   BACKBONE|DICT|INTERRES
   115   59   60 1    
   116   59  125 1    
   117   60   61 1    
   118   60   62 1    
   119   60  126 1    
   120   61  127 1    
   121   61  128 1    
   122   61  129 1    
   123   62   63 2    
   124   62   64 am   BACKBONE|DICT|INTERRES
   125   64   65 1    
   126   64  130 1    
   127   65   66 1    
   128   65   69 1    
   129   65  131 1    
   130   66   67 am   BACKBONE|DICT|INTERRES
   131   66   68 2    
   132   67  132 1    
   133   67  133 1    
   134   69   70 1    
   135   69  134 1    
   136   69  135 1    
   137   70   71 1    
   138   71  136 1    
   139   71  137 1    
@<TRIPOS>SUBSTRUCTURE
     1 UNK         1 GROUP             0       ****    0 ROOT    
