@<TRIPOS>MOLECULE
3R137
137   139    1
SMALL
USER_CHARGES


@<TRIPOS>ATOM
      1 CA         24.4791   -4.8738    1.2328 C.3       0 UNK        -0.2020 
      2 C          25.5207   -3.7693    1.1357 C.2       0 UNK         0.4855 
      3 O          25.8110   -3.1116    2.1351 O.2       0 UNK        -0.5197 
      4 N          26.0853   -3.5615   -0.0610 N.am      1 UNK        -0.4892 
      5 CA         27.1132   -2.5481   -0.3459 C.3       1 UNK         0.0835 
      6 C6         27.8049   -2.8012   -1.7100 C.3       12 UNK        -0.0855 
      7 S7         28.5645   -4.4583   -1.7959 S.3       12 UNK        -0.2931 
      8 C8         30.3162   -4.0636   -2.1109 C.3       12 UNK         0.0378 
      9 C9         30.5967   -3.7247   -3.5715 C.ar      12 UNK        -0.0802 
     10 C10        31.3022   -2.5636   -3.9054 C.ar      12 UNK        -0.0944 
     11 C11        31.6289   -2.2865   -5.2377 C.ar      12 UNK        -0.0787 
     12 C12        31.2394   -3.1824   -6.2387 C.ar      12 UNK        -0.0862 
     13 C13        30.5197   -4.3379   -5.9231 C.ar      12 UNK        -0.0733 
     14 C14        30.2069   -4.6044   -4.5873 C.ar      12 UNK        -0.0832 
     15 C15        30.1173   -5.3237   -7.0147 C.3       12 UNK         0.0240 
     16 S16        28.9507   -4.6211   -8.2273 S.3       12 UNK        -0.2522 
     17 C17        27.4907   -4.2484   -7.1943 C.3       12 UNK        -0.0967 
     18 CA         26.6743   -3.0333   -7.7168 C.3       5 UNK         0.0660 
     19 N          25.3584   -2.8945   -7.0807 N.am      5 UNK        -0.4015 
     20 C          25.0996   -2.7208   -5.7773 C.2       4 UNK         0.4946 
     21 O          25.9554   -2.7394   -4.8901 O.2       4 UNK        -0.5353 
     22 CA         23.6391   -2.4266   -5.4024 C.3       4 UNK         0.0277 
     23 CB         23.0783   -3.5353   -4.4960 C.3       4 UNK        -0.1981 
     24 N          23.4952   -1.1329   -4.7280 N.am      4 UNK        -0.4209 
     25 C          23.8942    0.0564   -5.2079 C.2       3 UNK         0.4942 
     26 O          24.4586    0.2068   -6.2920 O.2       3 UNK        -0.5208 
     27 CA         23.6058    1.2927   -4.3368 C.3       3 UNK         0.0250 
     28 CB         22.2631    1.9272   -4.7329 C.3       3 UNK        -0.1990 
     29 N          23.6002    0.9851   -2.9029 N.am      3 UNK        -0.4232 
     30 C          24.7144    0.8004   -2.1816 C.2       2 UNK         0.4993 
     31 O          25.8431    0.9802   -2.6370 O.2       2 UNK        -0.5286 
     32 CA         24.5621    0.3234   -0.7247 C.3       2 UNK         0.0209 
     33 CB         23.1005    0.1597   -0.2569 C.3       2 UNK        -0.1931 
     34 N          25.2544   -0.9556   -0.5681 N.am      2 UNK        -0.4546 
     35 C          26.5578   -1.1086   -0.2919 C.2       1 UNK         0.5154 
     36 O          27.3137   -0.1800   -0.0003 O.2       1 UNK        -0.5181 
     37 C          27.4763   -1.7149   -7.6769 C.2       5 UNK         0.5014 
     38 O          27.8344   -1.1902   -8.7333 O.2       5 UNK        -0.5248 
     39 N          27.7380   -1.2051   -6.4678 N.am      6 UNK        -0.4434 
     40 CA         28.6327   -0.0873   -6.1765 C.3       6 UNK         0.0363 
     41 CB         28.6915    0.1393   -4.6609 C.3       6 UNK        -0.1936 
     42 C          28.3152    1.2215   -6.9153 C.2       6 UNK         0.5081 
     43 O          29.2556    1.9167   -7.2954 O.2       6 UNK        -0.5248 
     44 N          27.0306    1.5280   -7.1544 N.am      7 UNK        -0.4718 
     45 CA         26.6176    2.7214   -7.9059 C.3       7 UNK         0.0273 
     46 CB         25.1050    2.9446   -7.7528 C.3       7 UNK        -0.1935 
     47 C          27.0027    2.6790   -9.3964 C.2       7 UNK         0.5018 
     48 O          27.1688    3.7404   -9.9989 O.2       7 UNK        -0.5186 
     49 N          27.1384    1.4712   -9.9603 N.am      8 UNK        -0.4240 
     50 CA         27.5848    1.2478  -11.3348 C.3       8 UNK         0.0235 
     51 CB         26.8160    0.0591  -11.9362 C.3       8 UNK        -0.2000 
     52 C          29.0983    0.9970  -11.3885 C.2       8 UNK         0.4941 
     53 O          29.7735    1.5530  -12.2551 O.2       8 UNK        -0.5273 
     54 N          29.5992    0.1544  -10.4750 N.am      9 UNK        -0.4262 
     55 CA         30.9930   -0.2873  -10.4224 C.3       9 UNK         0.0264 
     56 CB         31.0801   -1.5383   -9.5397 C.3       9 UNK        -0.1955 
     57 C          31.9772    0.7812   -9.9215 C.2       9 UNK         0.5031 
     58 O          33.1408    0.7481  -10.3259 O.2       9 UNK        -0.5390 
     59 N          31.5205    1.6792   -9.0356 N.am      10 UNK        -0.4204 
     60 CA         32.2440    2.7785   -8.3796 C.3       10 UNK         0.0237 
     61 CB         32.7807    3.7964   -9.4052 C.3       10 UNK        -0.1985 
     62 C          33.3479    2.3428   -7.3971 C.2       10 UNK         0.4970 
     63 O          33.4271    2.9117   -6.3081 O.2       10 UNK        -0.4914 
     64 N          34.1801    1.3712   -7.7941 N.am      11 UNK        -0.4285 
     65 CA         35.3640    0.8731   -7.0691 C.3       11 UNK         0.1007 
     66 C          36.5002    1.9304   -6.8902 C.2       11 UNK         0.5703 
     67 N          36.5379    2.9990   -7.6783 N.am      11 UNK        -0.7361 
     68 O          37.3853    1.7692   -6.0527 O.2       11 UNK        -0.4986 
     69 C69        35.0024    0.1337   -5.7465 C.3       12 UNK        -0.0947 
     70 S70        34.1340   -1.4453   -6.0294 S.3       12 UNK        -0.2240 
     71 C71        32.4192   -1.0322   -5.5898 C.3       12 UNK         0.0194 
     72 H72        24.3238   -5.3744    0.2772 H         1 UNK         0.0906 
     73 H73        24.7930   -5.6222    1.9599 H         1 UNK         0.0906 
     74 H74        23.5244   -4.4616    1.5587 H         1 UNK         0.0906 
     75 H75        25.8417   -4.1589   -0.8390 H         1 UNK         0.3140 
     76 H76        27.8730   -2.6192    0.4360 H         1 UNK         0.1085 
     77 H77        27.0872   -2.7134   -2.5270 H         1 UNK         0.0836 
     78 H78        28.5675   -2.0431   -1.8999 H         1 UNK         0.0836 
     79 H79        30.9191   -4.9314   -1.8402 H         1 UNK         0.0731 
     80 H80        30.6316   -3.2562   -1.4480 H         1 UNK         0.0731 
     81 H81        31.6171   -1.8841   -3.1253 H         1 UNK         0.1312 
     82 H82        31.5139   -2.9950   -7.2650 H         1 UNK         0.1406 
     83 H83        29.6699   -5.5076   -4.3305 H         1 UNK         0.1631 
     84 H84        29.6746   -6.2232   -6.5839 H         1 UNK         0.0717 
     85 H85        31.0146   -5.6492   -7.5426 H         1 UNK         0.0717 
     86 H86        26.8605   -5.1388   -7.1812 H         1 UNK         0.0934 
     87 H87        27.8007   -4.0893   -6.1609 H         1 UNK         0.0934 
     88 H88        26.4553   -3.2232   -8.7691 H         1 UNK         0.0739 
     89 H89        24.5848   -2.8223   -7.7265 H         1 UNK         0.3093 
     90 H90        23.0369   -2.3892   -6.3125 H         1 UNK         0.0818 
     91 H91        22.0240   -3.3724   -4.2715 H         1 UNK         0.0819 
     92 H92        23.1583   -4.5107   -4.9780 H         1 UNK         0.0819 
     93 H93        23.6190   -3.5954   -3.5504 H         1 UNK         0.0819 
     94 H94        23.0624   -1.1510   -3.8179 H         1 UNK         0.3041 
     95 H95        24.3939    2.0230   -4.5334 H         1 UNK         0.0784 
     96 H96        22.2536    2.1864   -5.7928 H         1 UNK         0.0793 
     97 H97        21.4256    1.2513   -4.5553 H         1 UNK         0.0793 
     98 H98        22.0789    2.8457   -4.1753 H         1 UNK         0.0793 
     99 H99        22.7021    0.8537   -2.4601 H         1 UNK         0.3024 
    100 H100       25.0383    1.0765   -0.0923 H         1 UNK         0.1171 
    101 H101       22.5537    1.1013   -0.3240 H         1 UNK         0.0786 
    102 H102       22.5601   -0.5889   -0.8378 H         1 UNK         0.0786 
    103 H103       23.0620   -0.1501    0.7879 H         1 UNK         0.0786 
    104 H104       24.7292   -1.7875   -0.7936 H         1 UNK         0.2977 
    105 H105       27.3247   -1.6864   -5.6718 H         1 UNK         0.3127 
    106 H106       29.6237   -0.3994   -6.5052 H         1 UNK         0.0770 
    107 H107       27.7184    0.4292   -4.2681 H         1 UNK         0.0814 
    108 H108       29.3978    0.9315   -4.4090 H         1 UNK         0.0814 
    109 H109       29.0100   -0.7606   -4.1353 H         1 UNK         0.0814 
    110 H110       26.2936    0.9093   -6.8272 H         1 UNK         0.2983 
    111 H111       27.1291    3.5817   -7.4683 H         1 UNK         0.0947 
    112 H112       24.7899    3.8517   -8.2704 H         1 UNK         0.0806 
    113 H113       24.8236    3.0579   -6.7066 H         1 UNK         0.0806 
    114 H114       24.5308    2.1168   -8.1705 H         1 UNK         0.0806 
    115 H115       27.0347    0.6500   -9.3750 H         1 UNK         0.3000 
    116 H116       27.3688    2.1278  -11.9450 H         1 UNK         0.0850 
    117 H117       27.1290   -0.1271  -12.9644 H         1 UNK         0.0810 
    118 H118       25.7432    0.2519  -11.9544 H         1 UNK         0.0810 
    119 H119       26.9802   -0.8609  -11.3734 H         1 UNK         0.0810 
    120 H120       28.9578   -0.2917   -9.8203 H         1 UNK         0.3040 
    121 H121       31.2997   -0.5634  -11.4336 H         1 UNK         0.0766 
    122 H122       30.7078   -1.3323   -8.5368 H         1 UNK         0.0812 
    123 H123       32.1090   -1.8900   -9.4493 H         1 UNK         0.0812 
    124 H124       30.4899   -2.3573   -9.9514 H         1 UNK         0.0812 
    125 H125       30.5604    1.5853   -8.7140 H         1 UNK         0.3205 
    126 H126       31.4936    3.2973   -7.7811 H         1 UNK         0.0754 
    127 H127       33.2238    4.6574   -8.9029 H         1 UNK         0.0769 
    128 H128       31.9806    4.1709  -10.0439 H         1 UNK         0.0769 
    129 H129       33.5485    3.3669  -10.0491 H         1 UNK         0.0769 
    130 H130       34.0316    0.9920   -8.7266 H         1 UNK         0.2981 
    131 H131       35.8100    0.1332   -7.7343 H         1 UNK         0.0541 
    132 H132       37.2818    3.6693   -7.5640 H         1 UNK         0.3459 
    133 H133       35.8351    3.1386   -8.3855 H         1 UNK         0.3459 
    134 H134       34.4263    0.7751   -5.0791 H         1 UNK         0.0612 
    135 H135       35.9053   -0.1275   -5.1925 H         1 UNK         0.0612 
    136 H136       31.9559   -0.5145   -6.4299 H         1 UNK         0.0624 
    137 H137       32.4083   -0.3348   -4.7511 H         1 UNK         0.0624 
@<TRIPOS>BOND
     1    1    2 1    
     2    1   72 1    
     3    1   73 1    
     4    1   74 1    
     5    2    3 2    
     6    2    4 am   BACKBONE|DICT|INTERRES
     7    4    5 1    
     8    4   75 1    
     9    5    6 1    
    10    5   35 1    
    11    5   76 1    
    12    6    7 1    
    13    6   77 1    
    14    6   78 1    
    15    7    8 1    
    16    8    9 1    
    17    8   79 1    
    18    8   80 1    
    19    9   10 ar   
    20    9   14 ar   
    21   10   11 ar   
    22   10   81 1    
    23   11   12 ar   
    24   11   71 1    
    25   12   13 ar   
    26   12   82 1    
    27   13   14 ar   
    28   13   15 1    
    29   14   83 1    
    30   15   16 1    
    31   15   84 1    
    32   15   85 1    
    33   16   17 1    
    34   17   18 1    
    35   17   86 1    
    36   17   87 1    
    37   18   19 1    
    38   18   37 1    
    39   18   88 1    
    40   19   20 am   BACKBONE|DICT|INTERRES
    41   19   89 1    
    42   20   21 2    
    43   20   22 1    
    44   22   23 1    
    45   22   24 1    
    46   22   90 1    
    47   23   91 1    
    48   23   92 1    
    49   23   93 1    
    50   24   25 am   BACKBONE|DICT|INTERRES
    51   24   94 1    
    52   25   26 2    
    53   25   27 1    
    54   27   28 1    
    55   27   29 1    
    56   27   95 1    
    57   28   96 1    
    58   28   97 1    
    59   28   98 1    
    60   29   30 am   BACKBONE|DICT|INTERRES
    61   29   99 1    
    62   30   31 2    
    63   30   32 1    
    64   32   33 1    
    65   32   34 1    
    66   32  100 1    
    67   33  101 1    
    68   33  102 1    
    69   33  103 1    
    70   34   35 am   BACKBONE|DICT|INTERRES
    71   34  104 1    
    72   35   36 2    
    73   37   38 2    
    74   37   39 am   BACKBONE|DICT|INTERRES
    75   39   40 1    
    76   39  105 1    
    77   40   41 1    
    78   40   42 1    
    79   40  106 1    
    80   41  107 1    
    81   41  108 1    
    82   41  109 1    
    83   42   43 2    
    84   42   44 am   BACKBONE|DICT|INTERRES
    85   44   45 1    
    86   44  110 1    
    87   45   46 1    
    88   45   47 1    
    89   45  111 1    
    90   46  112 1    
    91   46  113 1    
    92   46  114 1    
    93   47   48 2    
    94   47   49 am   BACKBONE|DICT|INTERRES
    95   49   50 1    
    96   49  115 1    
    97   50   51 1    
    98   50   52 1    
    99   50  116 1    
   100   51  117 1    
   101   51  118 1    
   102   51  119 1    
   103   52   53 2    
   104   52   54 am   BACKBONE|DICT|INTERRES
   105   54   55 1    
   106   54  120 1    
   107   55   56 1    
   108   55   57 1    
   109   55  121 1    
   110   56  122 1    
   111   56  123 1    
   112   56  124 1    
   113   57   58 2    
   114   57   59 am   BACKBONE|DICT|INTERRES
   115   59   60 1    
   116   59  125 1    
   117   60   61 1    
   118   60   62 1    
   119   60  126 1    
   120   61  127 1    
   121   61  128 1    
   122   61  129 1    
   123   62   63 2    
   124   62   64 am   BACKBONE|DICT|INTERRES
   125   64   65 1    
   126   64  130 1    
   127   65   66 1    
   128   65   69 1    
   129   65  131 1    
   130   66   67 am   BACKBONE|DICT|INTERRES
   131   66   68 2    
   132   67  132 1    
   133   67  133 1    
   134   69   70 1    
   135   69  134 1    
   136   69  135 1    
   137   70   71 1    
   138   71  136 1    
   139   71  137 1    
@<TRIPOS>SUBSTRUCTURE
     1 UNK         1 GROUP             0       ****    0 ROOT    
