@<TRIPOS>MOLECULE
3R137
137   139    1
SMALL
USER_CHARGES


@<TRIPOS>ATOM
      1 CA         27.0198   -0.8632    3.0054 C.3       0 UNK        -0.2020 
      2 C          27.3236   -1.2797    1.5742 C.2       0 UNK         0.4855 
      3 O          26.9180   -0.5917    0.6371 O.2       0 UNK        -0.5197 
      4 N          28.0420   -2.3950    1.3979 N.am      1 UNK        -0.4892 
      5 CA         28.3948   -2.9626    0.0933 C.3       1 UNK         0.0835 
      6 C6         29.5342   -4.0092    0.1993 C.3       12 UNK        -0.0855 
      7 S7         31.0471   -3.3306    0.9649 S.3       12 UNK        -0.2931 
      8 C8         32.1872   -3.2261   -0.4576 C.3       12 UNK         0.0378 
      9 C9         31.7030   -2.2947   -1.5656 C.ar      12 UNK        -0.0802 
     10 C10        31.7927   -2.6976   -2.9009 C.ar      12 UNK        -0.0944 
     11 C11        31.3740   -1.8488   -3.9289 C.ar      12 UNK        -0.0787 
     12 C12        30.8561   -0.5894   -3.6141 C.ar      12 UNK        -0.0862 
     13 C13        30.7394   -0.1744   -2.2798 C.ar      12 UNK        -0.0733 
     14 C14        31.1887   -1.0284   -1.2683 C.ar      12 UNK        -0.0832 
     15 C15        30.1382    1.1707   -1.8594 C.3       12 UNK         0.0240 
     16 S16        29.3667    2.1795   -3.1735 S.3       12 UNK        -0.2522 
     17 C17        27.9871    1.1184   -3.7248 C.3       12 UNK        -0.0967 
     18 CA         27.9281    1.0541   -5.2738 C.3       5 UNK         0.0660 
     19 N          27.5430   -0.2664   -5.7769 N.am      5 UNK        -0.4015 
     20 C          27.6908   -0.6558   -7.0541 C.2       4 UNK         0.4946 
     21 O          28.2374    0.0336   -7.9147 O.2       4 UNK        -0.5353 
     22 CA         27.1087   -2.0228   -7.4629 C.3       4 UNK         0.0277 
     23 CB         28.1732   -3.1200   -7.3109 C.3       4 UNK        -0.1981 
     24 N          25.9175   -2.4062   -6.7041 N.am      4 UNK        -0.4209 
     25 C          24.7946   -1.6819   -6.5968 C.2       3 UNK         0.4942 
     26 O          24.5717   -0.6723   -7.2635 O.2       3 UNK        -0.5208 
     27 CA         23.7830   -2.1058   -5.5132 C.3       3 UNK         0.0250 
     28 CB         22.5813   -2.8166   -6.1555 C.3       3 UNK        -0.1990 
     29 N          24.3306   -2.9525   -4.4405 N.am      3 UNK        -0.4232 
     30 C          25.3785   -2.6606   -3.6541 C.2       2 UNK         0.4993 
     31 O          26.0471   -1.6266   -3.7550 O.2       2 UNK        -0.5286 
     32 CA         25.7830   -3.7325   -2.6344 C.3       2 UNK         0.0209 
     33 CB         26.2159   -5.0394   -3.3296 C.3       2 UNK        -0.1931 
     34 N          26.8900   -3.2293   -1.8255 N.am      2 UNK        -0.4546 
     35 C          27.1517   -3.5900   -0.5662 C.2       1 UNK         0.5154 
     36 O          26.4741   -4.4036    0.0679 O.2       1 UNK        -0.5181 
     37 C          27.0333    2.1626   -5.8589 C.2       5 UNK         0.5014 
     38 O          27.5545    3.1598   -6.3616 O.2       5 UNK        -0.5248 
     39 N          25.7097    1.9376   -5.8349 N.am      6 UNK        -0.4434 
     40 CA         24.6892    2.8286   -6.4002 C.3       6 UNK         0.0363 
     41 CB         23.2910    2.3370   -5.9928 C.3       6 UNK        -0.1936 
     42 C          24.7923    2.9795   -7.9288 C.2       6 UNK         0.5081 
     43 O          24.4379    4.0322   -8.4579 O.2       6 UNK        -0.5248 
     44 N          25.3411    1.9598   -8.6020 N.am      7 UNK        -0.4718 
     45 CA         25.7232    1.9640  -10.0175 C.3       7 UNK         0.0273 
     46 CB         25.7519    0.5097  -10.5203 C.3       7 UNK        -0.1935 
     47 C          27.0558    2.6991  -10.3014 C.2       7 UNK         0.5018 
     48 O          27.6638    2.4523  -11.3434 O.2       7 UNK        -0.5186 
     49 N          27.4779    3.5886   -9.3893 N.am      8 UNK        -0.4240 
     50 CA         28.6870    4.4181   -9.4131 C.3       8 UNK         0.0235 
     51 CB         28.6962    5.3719  -10.6280 C.3       8 UNK        -0.2000 
     52 C          29.9712    3.5825   -9.2761 C.2       8 UNK         0.4941 
     53 O          30.9014    3.7474  -10.0678 O.2       8 UNK        -0.5273 
     54 N          29.9904    2.7141   -8.2530 N.am      9 UNK        -0.4262 
     55 CA         31.0868    1.8106   -7.8761 C.3       9 UNK         0.0264 
     56 CB         32.2845    2.6053   -7.3159 C.3       9 UNK        -0.1955 
     57 C          31.4788    0.8433   -9.0085 C.2       9 UNK         0.5031 
     58 O          32.6580    0.7131   -9.3458 O.2       9 UNK        -0.5390 
     59 N          30.4764    0.1487   -9.5585 N.am      10 UNK        -0.4204 
     60 CA         30.6138   -0.8767  -10.5952 C.3       10 UNK         0.0237 
     61 CB         29.2898   -0.9676  -11.3763 C.3       10 UNK        -0.1985 
     62 C          31.0335   -2.2282   -9.9841 C.2       10 UNK         0.4970 
     63 O          30.3631   -3.2394  -10.1984 O.2       10 UNK        -0.4914 
     64 N          32.1131   -2.2107   -9.1946 N.am      11 UNK        -0.4285 
     65 CA         32.5948   -3.3414   -8.3874 C.3       11 UNK         0.1007 
     66 C          33.2520   -4.4984   -9.1955 C.2       11 UNK         0.5703 
     67 N          33.5626   -4.3269  -10.4751 N.am      11 UNK        -0.7361 
     68 O          33.4788   -5.5754   -8.6492 O.2       11 UNK        -0.4986 
     69 C69        33.5263   -2.8738   -7.2353 C.3       12 UNK        -0.0947 
     70 S70        32.8663   -1.5005   -6.2277 S.3       12 UNK        -0.2240 
     71 C71        31.4702   -2.2973   -5.3789 C.3       12 UNK         0.0194 
     72 H72        27.4493   -1.5534    3.7314 H         1 UNK         0.0906 
     73 H73        27.4245    0.1295    3.2010 H         1 UNK         0.0906 
     74 H74        25.9424   -0.8297    3.1655 H         1 UNK         0.0906 
     75 H75        28.3454   -2.9295    2.1996 H         1 UNK         0.3140 
     76 H76        28.7418   -2.1453   -0.5418 H         1 UNK         0.1085 
     77 H77        29.7788   -4.4078   -0.7876 H         1 UNK         0.0836 
     78 H78        29.2135   -4.8653    0.7965 H         1 UNK         0.0836 
     79 H79        32.3532   -4.2333   -0.8434 H         1 UNK         0.0731 
     80 H80        33.1553   -2.8696   -0.1037 H         1 UNK         0.0731 
     81 H81        32.1963   -3.6715   -3.1430 H         1 UNK         0.1312 
     82 H82        30.5478    0.0563   -4.4217 H         1 UNK         0.1406 
     83 H83        31.1212   -0.7117   -0.2358 H         1 UNK         0.1631 
     84 H84        30.9252    1.7684   -1.3975 H         1 UNK         0.0717 
     85 H85        29.3889    0.9979   -1.0848 H         1 UNK         0.0717 
     86 H86        28.1288    0.1204   -3.3083 H         1 UNK         0.0934 
     87 H87        27.0540    1.4769   -3.2850 H         1 UNK         0.0934 
     88 H88        28.9316    1.2326   -5.6600 H         1 UNK         0.0739 
     89 H89        27.0551   -0.8737   -5.1210 H         1 UNK         0.3093 
     90 H90        26.8256   -1.9573   -8.5150 H         1 UNK         0.0818 
     91 H91        27.8352   -4.0628   -7.7413 H         1 UNK         0.0819 
     92 H92        29.0937   -2.8456   -7.8255 H         1 UNK         0.0819 
     93 H93        28.4257   -3.2987   -6.2650 H         1 UNK         0.0819 
     94 H94        25.9975   -3.2289   -6.1258 H         1 UNK         0.3041 
     95 H95        23.4244   -1.1874   -5.0439 H         1 UNK         0.0784 
     96 H96        22.1349   -2.2003   -6.9377 H         1 UNK         0.0793 
     97 H97        22.8695   -3.7642   -6.6125 H         1 UNK         0.0793 
     98 H98        21.7999   -3.0191   -5.4228 H         1 UNK         0.0793 
     99 H99        23.8531   -3.8299   -4.2894 H         1 UNK         0.3024 
    100 H100       24.9186   -3.9222   -1.9933 H         1 UNK         0.1171 
    101 H101       26.5135   -5.7943   -2.6014 H         1 UNK         0.0786 
    102 H102       25.4054   -5.4713   -3.9175 H         1 UNK         0.0786 
    103 H103       27.0599   -4.8774   -4.0014 H         1 UNK         0.0786 
    104 H104       27.4208   -2.4877   -2.2654 H         1 UNK         0.2977 
    105 H105       25.3777    1.0656   -5.4489 H         1 UNK         0.3127 
    106 H106       24.8418    3.8189   -5.9656 H         1 UNK         0.0770 
    107 H107       23.0719    1.3500   -6.4008 H         1 UNK         0.0814 
    108 H108       22.5197    3.0162   -6.3588 H         1 UNK         0.0814 
    109 H109       23.1866    2.2850   -4.9090 H         1 UNK         0.0814 
    110 H110       25.5414    1.1113   -8.0853 H         1 UNK         0.2983 
    111 H111       24.9511    2.4952  -10.5781 H         1 UNK         0.0947 
    112 H112       26.5413   -0.0620  -10.0349 H         1 UNK         0.0806 
    113 H113       25.9302    0.4651  -11.5954 H         1 UNK         0.0806 
    114 H114       24.8057    0.0032  -10.3285 H         1 UNK         0.0806 
    115 H115       26.9235    3.6740   -8.5471 H         1 UNK         0.3000 
    116 H116       28.6389    5.0398   -8.5174 H         1 UNK         0.0850 
    117 H117       29.5290    6.0731  -10.5642 H         1 UNK         0.0810 
    118 H118       27.7803    5.9606  -10.6776 H         1 UNK         0.0810 
    119 H119       28.8010    4.8330  -11.5701 H         1 UNK         0.0810 
    120 H120       29.1558    2.6599   -7.6788 H         1 UNK         0.3040 
    121 H121       30.7138    1.1811   -7.0686 H         1 UNK         0.0766 
    122 H122       33.0583    1.9314   -6.9456 H         1 UNK         0.0812 
    123 H123       31.9836    3.2406   -6.4829 H         1 UNK         0.0812 
    124 H124       32.7418    3.2394   -8.0761 H         1 UNK         0.0812 
    125 H125       29.5539    0.2420   -9.1321 H         1 UNK         0.3205 
    126 H126       31.3968   -0.5742  -11.2936 H         1 UNK         0.0754 
    127 H127       29.3717   -1.6697  -12.2068 H         1 UNK         0.0769 
    128 H128       29.0087   -0.0010  -11.7954 H         1 UNK         0.0769 
    129 H129       28.4719   -1.3071  -10.7398 H         1 UNK         0.0769 
    130 H130       32.6050   -1.3313   -9.0790 H         1 UNK         0.2981 
    131 H131       31.7121   -3.7848   -7.9232 H         1 UNK         0.0541 
    132 H132       33.9839   -5.0854  -10.9877 H         1 UNK         0.3459 
    133 H133       33.3777   -3.4485  -10.9315 H         1 UNK         0.3459 
    134 H134       33.7555   -3.7050   -6.5657 H         1 UNK         0.0612 
    135 H135       34.4835   -2.5427   -7.6422 H         1 UNK         0.0612 
    136 H136       30.5505   -2.0417   -5.9054 H         1 UNK         0.0624 
    137 H137       31.5657   -3.3828   -5.4316 H         1 UNK         0.0624 
@<TRIPOS>BOND
     1    1    2 1    
     2    1   72 1    
     3    1   73 1    
     4    1   74 1    
     5    2    3 2    
     6    2    4 am   BACKBONE|DICT|INTERRES
     7    4    5 1    
     8    4   75 1    
     9    5    6 1    
    10    5   35 1    
    11    5   76 1    
    12    6    7 1    
    13    6   77 1    
    14    6   78 1    
    15    7    8 1    
    16    8    9 1    
    17    8   79 1    
    18    8   80 1    
    19    9   10 ar   
    20    9   14 ar   
    21   10   11 ar   
    22   10   81 1    
    23   11   12 ar   
    24   11   71 1    
    25   12   13 ar   
    26   12   82 1    
    27   13   14 ar   
    28   13   15 1    
    29   14   83 1    
    30   15   16 1    
    31   15   84 1    
    32   15   85 1    
    33   16   17 1    
    34   17   18 1    
    35   17   86 1    
    36   17   87 1    
    37   18   19 1    
    38   18   37 1    
    39   18   88 1    
    40   19   20 am   BACKBONE|DICT|INTERRES
    41   19   89 1    
    42   20   21 2    
    43   20   22 1    
    44   22   23 1    
    45   22   24 1    
    46   22   90 1    
    47   23   91 1    
    48   23   92 1    
    49   23   93 1    
    50   24   25 am   BACKBONE|DICT|INTERRES
    51   24   94 1    
    52   25   26 2    
    53   25   27 1    
    54   27   28 1    
    55   27   29 1    
    56   27   95 1    
    57   28   96 1    
    58   28   97 1    
    59   28   98 1    
    60   29   30 am   BACKBONE|DICT|INTERRES
    61   29   99 1    
    62   30   31 2    
    63   30   32 1    
    64   32   33 1    
    65   32   34 1    
    66   32  100 1    
    67   33  101 1    
    68   33  102 1    
    69   33  103 1    
    70   34   35 am   BACKBONE|DICT|INTERRES
    71   34  104 1    
    72   35   36 2    
    73   37   38 2    
    74   37   39 am   BACKBONE|DICT|INTERRES
    75   39   40 1    
    76   39  105 1    
    77   40   41 1    
    78   40   42 1    
    79   40  106 1    
    80   41  107 1    
    81   41  108 1    
    82   41  109 1    
    83   42   43 2    
    84   42   44 am   BACKBONE|DICT|INTERRES
    85   44   45 1    
    86   44  110 1    
    87   45   46 1    
    88   45   47 1    
    89   45  111 1    
    90   46  112 1    
    91   46  113 1    
    92   46  114 1    
    93   47   48 2    
    94   47   49 am   BACKBONE|DICT|INTERRES
    95   49   50 1    
    96   49  115 1    
    97   50   51 1    
    98   50   52 1    
    99   50  116 1    
   100   51  117 1    
   101   51  118 1    
   102   51  119 1    
   103   52   53 2    
   104   52   54 am   BACKBONE|DICT|INTERRES
   105   54   55 1    
   106   54  120 1    
   107   55   56 1    
   108   55   57 1    
   109   55  121 1    
   110   56  122 1    
   111   56  123 1    
   112   56  124 1    
   113   57   58 2    
   114   57   59 am   BACKBONE|DICT|INTERRES
   115   59   60 1    
   116   59  125 1    
   117   60   61 1    
   118   60   62 1    
   119   60  126 1    
   120   61  127 1    
   121   61  128 1    
   122   61  129 1    
   123   62   63 2    
   124   62   64 am   BACKBONE|DICT|INTERRES
   125   64   65 1    
   126   64  130 1    
   127   65   66 1    
   128   65   69 1    
   129   65  131 1    
   130   66   67 am   BACKBONE|DICT|INTERRES
   131   66   68 2    
   132   67  132 1    
   133   67  133 1    
   134   69   70 1    
   135   69  134 1    
   136   69  135 1    
   137   70   71 1    
   138   71  136 1    
   139   71  137 1    
@<TRIPOS>SUBSTRUCTURE
     1 UNK         1 GROUP             0       ****    0 ROOT    
