@<TRIPOS>MOLECULE
3R137
137   139    1
SMALL
USER_CHARGES


@<TRIPOS>ATOM
      1 CA         28.2334   -9.7662   -1.8266 C.3       0 UNK        -0.2020 
      2 C          27.9884   -8.2675   -1.7304 C.2       0 UNK         0.4855 
      3 O          27.3807   -7.8082   -0.7624 O.2       0 UNK        -0.5197 
      4 N          28.4627   -7.5019   -2.7214 N.am      1 UNK        -0.4892 
      5 CA         28.2555   -6.0527   -2.8292 C.3       1 UNK         0.0835 
      6 C6         29.3466   -5.3922   -3.7176 C.3       12 UNK        -0.0855 
      7 S7         29.9250   -3.8068   -3.0268 S.3       12 UNK        -0.2931 
      8 C8         29.3053   -2.6113   -4.2487 C.3       12 UNK         0.0378 
      9 C9         29.7391   -1.2007   -3.8837 C.ar      12 UNK        -0.0802 
     10 C10        30.8473   -0.6201   -4.5068 C.ar      12 UNK        -0.0944 
     11 C11        31.2347    0.6862   -4.1960 C.ar      12 UNK        -0.0787 
     12 C12        30.5151    1.4084   -3.2407 C.ar      12 UNK        -0.0862 
     13 C13        29.4063    0.8372   -2.6081 C.ar      12 UNK        -0.0733 
     14 C14        29.0254   -0.4686   -2.9309 C.ar      12 UNK        -0.0832 
     15 C15        28.6114    1.6364   -1.5859 C.3       12 UNK         0.0240 
     16 S16        26.9377    2.0431   -2.1796 S.3       12 UNK        -0.2522 
     17 C17        27.2841    2.9461   -3.7289 C.3       12 UNK        -0.0967 
     18 CA         26.9052    2.1223   -4.9863 C.3       5 UNK         0.0660 
     19 N          25.4790    1.7622   -4.9783 N.am      5 UNK        -0.4015 
     20 C          24.8111    1.0830   -5.9192 C.2       4 UNK         0.4946 
     21 O          25.3060    0.7242   -6.9886 O.2       4 UNK        -0.5353 
     22 CA         23.3423    0.7489   -5.6041 C.3       4 UNK         0.0277 
     23 CB         22.6086    0.1246   -6.8058 C.3       4 UNK        -0.1981 
     24 N          23.2440   -0.1635   -4.4645 N.am      4 UNK        -0.4209 
     25 C          23.3133    0.1946   -3.1745 C.2       3 UNK         0.4942 
     26 O          23.4565    1.3606   -2.8046 O.2       3 UNK        -0.5208 
     27 CA         23.2058   -0.9265   -2.1242 C.3       3 UNK         0.0250 
     28 CB         21.7726   -1.0082   -1.5735 C.3       3 UNK        -0.1990 
     29 N          23.5964   -2.2377   -2.6543 N.am      3 UNK        -0.4232 
     30 C          24.8666   -2.6320   -2.8091 C.2       2 UNK         0.4993 
     31 O          25.8440   -1.9726   -2.4478 O.2       2 UNK        -0.5286 
     32 CA         25.0859   -3.9671   -3.5261 C.3       2 UNK         0.0209 
     33 CB         25.0162   -3.7654   -5.0535 C.3       2 UNK        -0.1931 
     34 N          26.3955   -4.4858   -3.1388 N.am      2 UNK        -0.4546 
     35 C          26.8303   -5.7341   -3.3335 C.2       1 UNK         0.5154 
     36 O          26.1640   -6.6038   -3.9033 O.2       1 UNK        -0.5181 
     37 C          27.3660    2.8653   -6.2594 C.2       5 UNK         0.5014 
     38 O          28.4991    2.6685   -6.6990 O.2       5 UNK        -0.5248 
     39 N          26.4870    3.7044   -6.8261 N.am      6 UNK        -0.4434 
     40 CA         26.7382    4.4567   -8.0573 C.3       6 UNK         0.0363 
     41 CB         25.7363    5.6189   -8.1501 C.3       6 UNK        -0.1936 
     42 C          26.6723    3.5919   -9.3296 C.2       6 UNK         0.5081 
     43 O          27.3065    3.9472  -10.3233 O.2       6 UNK        -0.5248 
     44 N          25.9028    2.4953   -9.2931 N.am      7 UNK        -0.4718 
     45 CA         25.7509    1.5578  -10.4067 C.3       7 UNK         0.0273 
     46 CB         24.3229    0.9876  -10.4152 C.3       7 UNK        -0.1935 
     47 C          26.7866    0.4326  -10.3053 C.2       7 UNK         0.5018 
     48 O          27.4867    0.1556  -11.2799 O.2       7 UNK        -0.5186 
     49 N          26.9005   -0.1700   -9.1151 N.am      8 UNK        -0.4240 
     50 CA         27.8432   -1.2394   -8.7854 C.3       8 UNK         0.0235 
     51 CB         27.2570   -2.0693   -7.6278 C.3       8 UNK        -0.2000 
     52 C          29.2393   -0.6815   -8.4537 C.2       8 UNK         0.4941 
     53 O          29.8206   -1.0512   -7.4334 O.2       8 UNK        -0.5273 
     54 N          29.7653    0.1966   -9.3178 N.am      9 UNK        -0.4262 
     55 CA         31.0126    0.9501   -9.1499 C.3       9 UNK         0.0264 
     56 CB         30.9973    2.1469  -10.1187 C.3       9 UNK        -0.1955 
     57 C          32.2893    0.0904   -9.2848 C.2       9 UNK         0.5031 
     58 O          33.2056    0.4473  -10.0281 O.2       9 UNK        -0.5390 
     59 N          32.3413   -1.0199   -8.5397 N.am      10 UNK        -0.4204 
     60 CA         33.4513   -1.9766   -8.4726 C.3       10 UNK         0.0237 
     61 CB         32.9795   -3.2219   -7.7032 C.3       10 UNK        -0.1985 
     62 C          34.7353   -1.4072   -7.8387 C.2       10 UNK         0.4970 
     63 O          35.8033   -1.9962   -8.0092 O.2       10 UNK        -0.4914 
     64 N          34.6076   -0.2845   -7.1221 N.am      11 UNK        -0.4285 
     65 CA         35.6975    0.4603   -6.4761 C.3       11 UNK         0.1007 
     66 C          36.6887    1.1428   -7.4647 C.2       11 UNK         0.5703 
     67 N          36.3569    1.2970   -8.7423 N.am      11 UNK        -0.7361 
     68 O          37.7806    1.5370   -7.0622 O.2       11 UNK        -0.4986 
     69 C69        35.1508    1.4958   -5.4554 C.3       12 UNK        -0.0947 
     70 S70        34.0005    0.7741   -4.2349 S.3       12 UNK        -0.2240 
     71 C71        32.4078    1.3247   -4.9202 C.3       12 UNK         0.0194 
     72 H72        27.2839  -10.3007   -1.8431 H         1 UNK         0.0906 
     73 H73        28.7879  -10.0329   -2.7262 H         1 UNK         0.0906 
     74 H74        28.8030  -10.1097   -0.9634 H         1 UNK         0.0906 
     75 H75        28.9149   -7.9404   -3.5113 H         1 UNK         0.3140 
     76 H76        28.3326   -5.6487   -1.8165 H         1 UNK         0.1085 
     77 H77        29.0209   -5.2686   -4.7530 H         1 UNK         0.0836 
     78 H78        30.2303   -6.0305   -3.7721 H         1 UNK         0.0836 
     79 H79        29.6765   -2.8760   -5.2404 H         1 UNK         0.0731 
     80 H80        28.2171   -2.6595   -4.3031 H         1 UNK         0.0731 
     81 H81        31.3998   -1.1801   -5.2483 H         1 UNK         0.1312 
     82 H82        30.8107    2.4205   -3.0005 H         1 UNK         0.1406 
     83 H83        28.1648   -0.9094   -2.4467 H         1 UNK         0.1631 
     84 H84        29.1296    2.5601   -1.3234 H         1 UNK         0.0717 
     85 H85        28.5284    1.0589   -0.6641 H         1 UNK         0.0717 
     86 H86        26.7253    3.8837   -3.7039 H         1 UNK         0.0934 
     87 H87        28.3376    3.2309   -3.7527 H         1 UNK         0.0934 
     88 H88        27.4614    1.1826   -4.9608 H         1 UNK         0.0739 
     89 H89        24.9856    1.9544   -4.1123 H         1 UNK         0.3093 
     90 H90        22.8368    1.6853   -5.3572 H         1 UNK         0.0818 
     91 H91        21.5675   -0.0927   -6.5666 H         1 UNK         0.0819 
     92 H92        22.6053    0.8084   -7.6552 H         1 UNK         0.0819 
     93 H93        23.0790   -0.8036   -7.1333 H         1 UNK         0.0819 
     94 H94        23.1518   -1.1439   -4.6819 H         1 UNK         0.3041 
     95 H95        23.8728   -0.6662   -1.2990 H         1 UNK         0.0784 
     96 H96        21.4641   -0.0523   -1.1475 H         1 UNK         0.0793 
     97 H97        21.0525   -1.2656   -2.3513 H         1 UNK         0.0793 
     98 H98        21.6939   -1.7535   -0.7816 H         1 UNK         0.0793 
     99 H99        22.8491   -2.8466   -2.9578 H         1 UNK         0.3024 
    100 H100       24.3170   -4.6743   -3.2062 H         1 UNK         0.1171 
    101 H101       24.0408   -3.3857   -5.3592 H         1 UNK         0.0786 
    102 H102       25.1767   -4.6982   -5.5939 H         1 UNK         0.0786 
    103 H103       25.7658   -3.0507   -5.3923 H         1 UNK         0.0786 
    104 H104       26.9768   -3.8108   -2.6547 H         1 UNK         0.2977 
    105 H105       25.5800    3.8163   -6.3970 H         1 UNK         0.3127 
    106 H106       27.7439    4.8796   -8.0020 H         1 UNK         0.0770 
    107 H107       24.7065    5.2630   -8.2008 H         1 UNK         0.0814 
    108 H108       25.9172    6.2183   -9.0437 H         1 UNK         0.0814 
    109 H109       25.8210    6.2868   -7.2927 H         1 UNK         0.0814 
    110 H110       25.4850    2.2201   -8.4118 H         1 UNK         0.2983 
    111 H111       25.9091    2.0790  -11.3538 H         1 UNK         0.0947 
    112 H112       24.1769    0.3205  -11.2658 H         1 UNK         0.0806 
    113 H113       23.5796    1.7809  -10.4943 H         1 UNK         0.0806 
    114 H114       24.1070    0.4142   -9.5135 H         1 UNK         0.0806 
    115 H115       26.3111    0.1560   -8.3490 H         1 UNK         0.3000 
    116 H116       27.9530   -1.8972   -9.6501 H         1 UNK         0.0850 
    117 H117       27.8948   -2.9218   -7.3911 H         1 UNK         0.0810 
    118 H118       26.2714   -2.4612   -7.8794 H         1 UNK         0.0810 
    119 H119       27.1589   -1.4713   -6.7203 H         1 UNK         0.0810 
    120 H120       29.2254    0.3951  -10.1529 H         1 UNK         0.3040 
    121 H121       31.0145    1.3542   -8.1352 H         1 UNK         0.0766 
    122 H122       31.8762    2.7777   -9.9788 H         1 UNK         0.0812 
    123 H123       30.1216    2.7765   -9.9562 H         1 UNK         0.0812 
    124 H124       30.9893    1.8218  -11.1598 H         1 UNK         0.0812 
    125 H125       31.5149   -1.2220   -7.9757 H         1 UNK         0.3205 
    126 H126       33.6985   -2.2728   -9.4940 H         1 UNK         0.0754 
    127 H127       33.7647   -3.9783   -7.6616 H         1 UNK         0.0769 
    128 H128       32.1148   -3.6810   -8.1829 H         1 UNK         0.0769 
    129 H129       32.7034   -2.9808   -6.6757 H         1 UNK         0.0769 
    130 H130       33.6889    0.1171   -7.0350 H         1 UNK         0.2981 
    131 H131       36.2862   -0.2698   -5.9176 H         1 UNK         0.0541 
    132 H132       35.4622    0.9785   -9.0853 H         1 UNK         0.3459 
    133 H133       37.0095    1.7379   -9.3708 H         1 UNK         0.3459 
    134 H134       34.6569    2.3208   -5.9725 H         1 UNK         0.0612 
    135 H135       35.9755    1.9433   -4.8977 H         1 UNK         0.0612 
    136 H136       32.3486    2.4126   -4.8604 H         1 UNK         0.0624 
    137 H137       32.3526    1.0724   -5.9792 H         1 UNK         0.0624 
@<TRIPOS>BOND
     1    1    2 1    
     2    1   72 1    
     3    1   73 1    
     4    1   74 1    
     5    2    3 2    
     6    2    4 am   BACKBONE|DICT|INTERRES
     7    4    5 1    
     8    4   75 1    
     9    5    6 1    
    10    5   35 1    
    11    5   76 1    
    12    6    7 1    
    13    6   77 1    
    14    6   78 1    
    15    7    8 1    
    16    8    9 1    
    17    8   79 1    
    18    8   80 1    
    19    9   10 ar   
    20    9   14 ar   
    21   10   11 ar   
    22   10   81 1    
    23   11   12 ar   
    24   11   71 1    
    25   12   13 ar   
    26   12   82 1    
    27   13   14 ar   
    28   13   15 1    
    29   14   83 1    
    30   15   16 1    
    31   15   84 1    
    32   15   85 1    
    33   16   17 1    
    34   17   18 1    
    35   17   86 1    
    36   17   87 1    
    37   18   19 1    
    38   18   37 1    
    39   18   88 1    
    40   19   20 am   BACKBONE|DICT|INTERRES
    41   19   89 1    
    42   20   21 2    
    43   20   22 1    
    44   22   23 1    
    45   22   24 1    
    46   22   90 1    
    47   23   91 1    
    48   23   92 1    
    49   23   93 1    
    50   24   25 am   BACKBONE|DICT|INTERRES
    51   24   94 1    
    52   25   26 2    
    53   25   27 1    
    54   27   28 1    
    55   27   29 1    
    56   27   95 1    
    57   28   96 1    
    58   28   97 1    
    59   28   98 1    
    60   29   30 am   BACKBONE|DICT|INTERRES
    61   29   99 1    
    62   30   31 2    
    63   30   32 1    
    64   32   33 1    
    65   32   34 1    
    66   32  100 1    
    67   33  101 1    
    68   33  102 1    
    69   33  103 1    
    70   34   35 am   BACKBONE|DICT|INTERRES
    71   34  104 1    
    72   35   36 2    
    73   37   38 2    
    74   37   39 am   BACKBONE|DICT|INTERRES
    75   39   40 1    
    76   39  105 1    
    77   40   41 1    
    78   40   42 1    
    79   40  106 1    
    80   41  107 1    
    81   41  108 1    
    82   41  109 1    
    83   42   43 2    
    84   42   44 am   BACKBONE|DICT|INTERRES
    85   44   45 1    
    86   44  110 1    
    87   45   46 1    
    88   45   47 1    
    89   45  111 1    
    90   46  112 1    
    91   46  113 1    
    92   46  114 1    
    93   47   48 2    
    94   47   49 am   BACKBONE|DICT|INTERRES
    95   49   50 1    
    96   49  115 1    
    97   50   51 1    
    98   50   52 1    
    99   50  116 1    
   100   51  117 1    
   101   51  118 1    
   102   51  119 1    
   103   52   53 2    
   104   52   54 am   BACKBONE|DICT|INTERRES
   105   54   55 1    
   106   54  120 1    
   107   55   56 1    
   108   55   57 1    
   109   55  121 1    
   110   56  122 1    
   111   56  123 1    
   112   56  124 1    
   113   57   58 2    
   114   57   59 am   BACKBONE|DICT|INTERRES
   115   59   60 1    
   116   59  125 1    
   117   60   61 1    
   118   60   62 1    
   119   60  126 1    
   120   61  127 1    
   121   61  128 1    
   122   61  129 1    
   123   62   63 2    
   124   62   64 am   BACKBONE|DICT|INTERRES
   125   64   65 1    
   126   64  130 1    
   127   65   66 1    
   128   65   69 1    
   129   65  131 1    
   130   66   67 am   BACKBONE|DICT|INTERRES
   131   66   68 2    
   132   67  132 1    
   133   67  133 1    
   134   69   70 1    
   135   69  134 1    
   136   69  135 1    
   137   70   71 1    
   138   71  136 1    
   139   71  137 1    
@<TRIPOS>SUBSTRUCTURE
     1 UNK         1 GROUP             0       ****    0 ROOT    
