@<TRIPOS>MOLECULE
3R137
137   139    1
SMALL
USER_CHARGES


@<TRIPOS>ATOM
      1 CA         28.6608   -5.1002    1.0047 C.3       0 UNK        -0.2020 
      2 C          27.8287   -3.8332    1.1372 C.2       0 UNK         0.4855 
      3 O          26.8115   -3.8362    1.8308 O.2       0 UNK        -0.5197 
      4 N          28.2537   -2.7494    0.4746 N.am      1 UNK        -0.4892 
      5 CA         27.5655   -1.4503    0.4490 C.3       1 UNK         0.0835 
      6 C6         28.5274   -0.2918    0.0724 C.3       12 UNK        -0.0855 
      7 S7         29.3266   -0.4778   -1.5594 S.3       12 UNK        -0.2931 
      8 C8         30.8926   -1.3117   -1.1146 C.3       12 UNK         0.0378 
      9 C9         31.4629   -2.1471   -2.2578 C.ar      12 UNK        -0.0802 
     10 C10        32.8419   -2.1682   -2.4870 C.ar      12 UNK        -0.0944 
     11 C11        33.3784   -2.9328   -3.5277 C.ar      12 UNK        -0.0787 
     12 C12        32.5211   -3.6660   -4.3526 C.ar      12 UNK        -0.0862 
     13 C13        31.1366   -3.6158   -4.1747 C.ar      12 UNK        -0.0733 
     14 C14        30.6239   -2.9024   -3.0855 C.ar      12 UNK        -0.0832 
     15 C15        30.2390   -4.3109   -5.2028 C.3       12 UNK         0.0240 
     16 S16        28.5075   -3.7175   -5.2921 S.3       12 UNK        -0.2522 
     17 C17        28.6734   -1.8987   -5.4306 C.3       12 UNK        -0.0967 
     18 CA         27.9038   -1.2775   -6.6217 C.3       5 UNK         0.0660 
     19 N          26.5145   -1.7358   -6.7065 N.am      5 UNK        -0.4015 
     20 C          25.7100   -1.5404   -7.7603 C.2       4 UNK         0.4946 
     21 O          26.0570   -0.9675   -8.7935 O.2       4 UNK        -0.5353 
     22 CA         24.2597   -2.0327   -7.6199 C.3       4 UNK         0.0277 
     23 CB         24.1716   -3.5450   -7.8808 C.3       4 UNK        -0.1981 
     24 N          23.6810   -1.7222   -6.3095 N.am      4 UNK        -0.4209 
     25 C          23.4614   -0.4789   -5.8571 C.2       3 UNK         0.4942 
     26 O          23.6788    0.5348   -6.5158 O.2       3 UNK        -0.5208 
     27 CA         22.9494   -0.3299   -4.4158 C.3       3 UNK         0.0250 
     28 CB         21.4128   -0.3377   -4.3884 C.3       3 UNK        -0.1990 
     29 N          23.4622   -1.3456   -3.4929 N.am      3 UNK        -0.4232 
     30 C          24.7557   -1.5529   -3.2090 C.2       2 UNK         0.4993 
     31 O          25.6895   -0.9491   -3.7460 O.2       2 UNK        -0.5286 
     32 CA         25.0379   -2.6806   -2.2048 C.3       2 UNK         0.0209 
     33 CB         25.2406   -4.0144   -2.9415 C.3       2 UNK        -0.1931 
     34 N          26.2058   -2.4186   -1.3649 N.am      2 UNK        -0.4546 
     35 C          26.2841   -1.4717   -0.4175 C.2       1 UNK         0.5154 
     36 O          25.3791   -0.6702   -0.1769 O.2       1 UNK        -0.5181 
     37 C          27.9627    0.2613   -6.5513 C.2       5 UNK         0.5014 
     38 O          28.7898    0.8733   -7.2282 O.2       5 UNK        -0.5248 
     39 N          27.0582    0.8600   -5.7600 N.am      6 UNK        -0.4434 
     40 CA         26.8930    2.3100   -5.6367 C.3       6 UNK         0.0363 
     41 CB         25.9044    2.6246   -4.5037 C.3       6 UNK        -0.1936 
     42 C          26.4547    2.9790   -6.9524 C.2       6 UNK         0.5081 
     43 O          26.9888    4.0337   -7.2935 O.2       6 UNK        -0.5248 
     44 N          25.5208    2.3482   -7.6797 N.am      7 UNK        -0.4718 
     45 CA         25.0526    2.7819   -8.9998 C.3       7 UNK         0.0273 
     46 CB         23.8022    1.9828   -9.3996 C.3       7 UNK        -0.1935 
     47 C          26.1350    2.6695  -10.0850 C.2       7 UNK         0.5018 
     48 O          26.2365    3.5645  -10.9251 O.2       7 UNK        -0.5186 
     49 N          26.9361    1.5940  -10.0383 N.am      8 UNK        -0.4240 
     50 CA         28.1160    1.4077  -10.8893 C.3       8 UNK         0.0235 
     51 CB         28.6251   -0.0370  -10.7547 C.3       8 UNK        -0.2000 
     52 C          29.2461    2.4047  -10.5732 C.2       8 UNK         0.4941 
     53 O          30.0069    2.7536  -11.4763 O.2       8 UNK        -0.5273 
     54 N          29.3284    2.8324   -9.3037 N.am      9 UNK        -0.4262 
     55 CA         30.3129    3.7495   -8.7184 C.3       9 UNK         0.0264 
     56 CB         30.1907    5.1602   -9.3318 C.3       9 UNK        -0.1955 
     57 C          31.7481    3.1907   -8.7617 C.2       9 UNK         0.5031 
     58 O          32.7076    3.9579   -8.8670 O.2       9 UNK        -0.5390 
     59 N          31.8667    1.8622   -8.6745 N.am      10 UNK        -0.4204 
     60 CA         33.1029    1.0929   -8.7361 C.3       10 UNK         0.0237 
     61 CB         33.6339    1.0504  -10.1832 C.3       10 UNK        -0.1985 
     62 C          32.8067   -0.3194   -8.2241 C.2       10 UNK         0.4970 
     63 O          31.6413   -0.7239   -8.1842 O.2       10 UNK        -0.4914 
     64 N          33.8677   -1.0487   -7.8639 N.am      11 UNK        -0.4285 
     65 CA         33.7861   -2.4336   -7.3758 C.3       11 UNK         0.1007 
     66 C          33.4250   -3.4936   -8.4577 C.2       11 UNK         0.5703 
     67 N          33.4705   -3.1770   -9.7466 N.am      11 UNK        -0.7361 
     68 O          33.0888   -4.6245   -8.1151 O.2       11 UNK        -0.4986 
     69 C69        35.0647   -2.8482   -6.5996 C.3       12 UNK        -0.0947 
     70 S70        35.3703   -1.8274   -5.1162 S.3       12 UNK        -0.2240 
     71 C71        34.8815   -2.9541   -3.7683 C.3       12 UNK         0.0194 
     72 H72        28.0570   -5.9029    0.5818 H         1 UNK         0.0906 
     73 H73        29.0146   -5.4206    1.9846 H         1 UNK         0.0906 
     74 H74        29.5290   -4.9549    0.3617 H         1 UNK         0.0906 
     75 H75        29.0924   -2.8038   -0.0841 H         1 UNK         0.3140 
     76 H76        27.2221   -1.2511    1.4674 H         1 UNK         0.1085 
     77 H77        29.3000   -0.1914    0.8365 H         1 UNK         0.0836 
     78 H78        27.9909    0.6592    0.0810 H         1 UNK         0.0836 
     79 H79        31.6075   -0.5470   -0.8061 H         1 UNK         0.0731 
     80 H80        30.7526   -1.9629   -0.2525 H         1 UNK         0.0731 
     81 H81        33.5011   -1.5903   -1.8532 H         1 UNK         0.1312 
     82 H82        32.9311   -4.2499   -5.1649 H         1 UNK         0.1406 
     83 H83        29.5592   -2.8929   -2.9064 H         1 UNK         0.1631 
     84 H84        30.2275   -5.3804   -4.9895 H         1 UNK         0.0717 
     85 H85        30.6769   -4.1988   -6.1964 H         1 UNK         0.0717 
     86 H86        28.3271   -1.4717   -4.4867 H         1 UNK         0.0934 
     87 H87        29.7298   -1.6346   -5.5113 H         1 UNK         0.0934 
     88 H88        28.4073   -1.5844   -7.5413 H         1 UNK         0.0739 
     89 H89        26.1448   -2.1803   -5.8790 H         1 UNK         0.3093 
     90 H90        23.6634   -1.5202   -8.3781 H         1 UNK         0.0818 
     91 H91        24.5842   -3.7950   -8.8593 H         1 UNK         0.0819 
     92 H92        24.7256   -4.1200   -7.1376 H         1 UNK         0.0819 
     93 H93        23.1374   -3.8898   -7.8704 H         1 UNK         0.0819 
     94 H94        23.4611   -2.4997   -5.7048 H         1 UNK         0.3041 
     95 H95        23.2891    0.6401   -4.0483 H         1 UNK         0.0784 
     96 H96        21.0075    0.4274   -5.0525 H         1 UNK         0.0793 
     97 H97        21.0060   -1.2972   -4.7107 H         1 UNK         0.0793 
     98 H98        21.0317   -0.1289   -3.3885 H         1 UNK         0.0793 
     99 H99        22.7674   -1.9044   -3.0180 H         1 UNK         0.3024 
    100 H100       24.1758   -2.7777   -1.5407 H         1 UNK         0.1171 
    101 H101       26.1040   -3.9804   -3.6054 H         1 UNK         0.0786 
    102 H102       25.3897   -4.8364   -2.2409 H         1 UNK         0.0786 
    103 H103       24.3710   -4.2656   -3.5503 H         1 UNK         0.0786 
    104 H104       27.0084   -3.0131   -1.5023 H         1 UNK         0.2977 
    105 H105       26.4451    0.2771   -5.1970 H         1 UNK         0.3127 
    106 H106       27.8649    2.7258   -5.3624 H         1 UNK         0.0770 
    107 H107       25.8354    3.7002   -4.3368 H         1 UNK         0.0814 
    108 H108       24.9011    2.2673   -4.7338 H         1 UNK         0.0814 
    109 H109       26.2164    2.1679   -3.5639 H         1 UNK         0.0814 
    110 H110       25.0638    1.5284   -7.2857 H         1 UNK         0.2983 
    111 H111       24.7731    3.8350   -8.9238 H         1 UNK         0.0947 
    112 H112       24.0061    0.9125   -9.4483 H         1 UNK         0.0806 
    113 H113       23.4360    2.2921  -10.3794 H         1 UNK         0.0806 
    114 H114       22.9909    2.1359   -8.6877 H         1 UNK         0.0806 
    115 H115       26.7326    0.8597   -9.3661 H         1 UNK         0.3000 
    116 H116       27.8129    1.5694  -11.9259 H         1 UNK         0.0850 
    117 H117       29.4856   -0.2101  -11.4024 H         1 UNK         0.0810 
    118 H118       27.8561   -0.7565  -11.0363 H         1 UNK         0.0810 
    119 H119       28.9362   -0.2634   -9.7342 H         1 UNK         0.0810 
    120 H120       28.6988    2.4037   -8.6334 H         1 UNK         0.3040 
    121 H121       30.0526    3.8276   -7.6619 H         1 UNK         0.0766 
    122 H122       30.8172    5.8748   -8.7971 H         1 UNK         0.0812 
    123 H123       29.1649    5.5253   -9.2779 H         1 UNK         0.0812 
    124 H124       30.4995    5.1760  -10.3772 H         1 UNK         0.0812 
    125 H125       31.0364    1.2965   -8.5266 H         1 UNK         0.3205 
    126 H126       33.8420    1.5563   -8.0794 H         1 UNK         0.0754 
    127 H127       34.5499    0.4627  -10.2531 H         1 UNK         0.0769 
    128 H128       33.8676    2.0490  -10.5527 H         1 UNK         0.0769 
    129 H129       32.9054    0.6075  -10.8640 H         1 UNK         0.0769 
    130 H130       34.7935   -0.6518   -7.9273 H         1 UNK         0.2981 
    131 H131       32.9521   -2.4537   -6.6753 H         1 UNK         0.0541 
    132 H132       33.2288   -3.8737  -10.4334 H         1 UNK         0.3459 
    133 H133       33.7409   -2.2523  -10.0384 H         1 UNK         0.3459 
    134 H134       35.9380   -2.7673   -7.2489 H         1 UNK         0.0612 
    135 H135       35.0184   -3.8966   -6.3008 H         1 UNK         0.0612 
    136 H136       35.4068   -2.6505   -2.8615 H         1 UNK         0.0624 
    137 H137       35.2174   -3.9698   -3.9816 H         1 UNK         0.0624 
@<TRIPOS>BOND
     1    1    2 1    
     2    1   72 1    
     3    1   73 1    
     4    1   74 1    
     5    2    3 2    
     6    2    4 am   BACKBONE|DICT|INTERRES
     7    4    5 1    
     8    4   75 1    
     9    5    6 1    
    10    5   35 1    
    11    5   76 1    
    12    6    7 1    
    13    6   77 1    
    14    6   78 1    
    15    7    8 1    
    16    8    9 1    
    17    8   79 1    
    18    8   80 1    
    19    9   10 ar   
    20    9   14 ar   
    21   10   11 ar   
    22   10   81 1    
    23   11   12 ar   
    24   11   71 1    
    25   12   13 ar   
    26   12   82 1    
    27   13   14 ar   
    28   13   15 1    
    29   14   83 1    
    30   15   16 1    
    31   15   84 1    
    32   15   85 1    
    33   16   17 1    
    34   17   18 1    
    35   17   86 1    
    36   17   87 1    
    37   18   19 1    
    38   18   37 1    
    39   18   88 1    
    40   19   20 am   BACKBONE|DICT|INTERRES
    41   19   89 1    
    42   20   21 2    
    43   20   22 1    
    44   22   23 1    
    45   22   24 1    
    46   22   90 1    
    47   23   91 1    
    48   23   92 1    
    49   23   93 1    
    50   24   25 am   BACKBONE|DICT|INTERRES
    51   24   94 1    
    52   25   26 2    
    53   25   27 1    
    54   27   28 1    
    55   27   29 1    
    56   27   95 1    
    57   28   96 1    
    58   28   97 1    
    59   28   98 1    
    60   29   30 am   BACKBONE|DICT|INTERRES
    61   29   99 1    
    62   30   31 2    
    63   30   32 1    
    64   32   33 1    
    65   32   34 1    
    66   32  100 1    
    67   33  101 1    
    68   33  102 1    
    69   33  103 1    
    70   34   35 am   BACKBONE|DICT|INTERRES
    71   34  104 1    
    72   35   36 2    
    73   37   38 2    
    74   37   39 am   BACKBONE|DICT|INTERRES
    75   39   40 1    
    76   39  105 1    
    77   40   41 1    
    78   40   42 1    
    79   40  106 1    
    80   41  107 1    
    81   41  108 1    
    82   41  109 1    
    83   42   43 2    
    84   42   44 am   BACKBONE|DICT|INTERRES
    85   44   45 1    
    86   44  110 1    
    87   45   46 1    
    88   45   47 1    
    89   45  111 1    
    90   46  112 1    
    91   46  113 1    
    92   46  114 1    
    93   47   48 2    
    94   47   49 am   BACKBONE|DICT|INTERRES
    95   49   50 1    
    96   49  115 1    
    97   50   51 1    
    98   50   52 1    
    99   50  116 1    
   100   51  117 1    
   101   51  118 1    
   102   51  119 1    
   103   52   53 2    
   104   52   54 am   BACKBONE|DICT|INTERRES
   105   54   55 1    
   106   54  120 1    
   107   55   56 1    
   108   55   57 1    
   109   55  121 1    
   110   56  122 1    
   111   56  123 1    
   112   56  124 1    
   113   57   58 2    
   114   57   59 am   BACKBONE|DICT|INTERRES
   115   59   60 1    
   116   59  125 1    
   117   60   61 1    
   118   60   62 1    
   119   60  126 1    
   120   61  127 1    
   121   61  128 1    
   122   61  129 1    
   123   62   63 2    
   124   62   64 am   BACKBONE|DICT|INTERRES
   125   64   65 1    
   126   64  130 1    
   127   65   66 1    
   128   65   69 1    
   129   65  131 1    
   130   66   67 am   BACKBONE|DICT|INTERRES
   131   66   68 2    
   132   67  132 1    
   133   67  133 1    
   134   69   70 1    
   135   69  134 1    
   136   69  135 1    
   137   70   71 1    
   138   71  136 1    
   139   71  137 1    
@<TRIPOS>SUBSTRUCTURE
     1 UNK         1 GROUP             0       ****    0 ROOT    
