@<TRIPOS>MOLECULE
3R137
137   139    1
SMALL
USER_CHARGES


@<TRIPOS>ATOM
      1 CA         26.2444   -6.5151   -2.8511 C.3       0 UNK        -0.2020 
      2 C          26.0603   -5.8616   -1.4901 C.2       0 UNK         0.4855 
      3 O          25.0744   -6.1373   -0.8065 O.2       0 UNK        -0.5197 
      4 N          27.0058   -5.0019   -1.0889 N.am      1 UNK        -0.4892 
      5 CA         26.9797   -4.2474    0.1714 C.3       1 UNK         0.0835 
      6 C6         28.3757   -3.6741    0.5332 C.3       12 UNK        -0.0855 
      7 S7         29.1145   -2.6494   -0.7898 S.3       12 UNK        -0.2931 
      8 C8         30.3877   -3.7690   -1.4502 C.3       12 UNK         0.0378 
      9 C9         30.6713   -3.4462   -2.9072 C.ar      12 UNK        -0.0802 
     10 C10        31.6966   -2.5609   -3.2524 C.ar      12 UNK        -0.0944 
     11 C11        31.9514   -2.2630   -4.5942 C.ar      12 UNK        -0.0787 
     12 C12        31.1548   -2.8411   -5.5868 C.ar      12 UNK        -0.0862 
     13 C13        30.1139   -3.7158   -5.2584 C.ar      12 UNK        -0.0733 
     14 C14        29.8970   -4.0321   -3.9129 C.ar      12 UNK        -0.0832 
     15 C15        29.2733   -4.3206   -6.3844 C.3       12 UNK         0.0240 
     16 S16        27.5578   -4.7931   -5.9489 S.3       12 UNK        -0.2522 
     17 C17        26.8257   -3.2613   -5.2768 C.3       12 UNK        -0.0967 
     18 CA         26.3621   -2.2599   -6.3687 C.3       5 UNK         0.0660 
     19 N          25.1782   -1.5039   -5.9578 N.am      5 UNK        -0.4015 
     20 C          24.3681   -0.8466   -6.8023 C.2       4 UNK         0.4946 
     21 O          24.4576   -0.9138   -8.0284 O.2       4 UNK        -0.5353 
     22 CA         23.2819    0.0561   -6.1857 C.3       4 UNK         0.0277 
     23 CB         21.9494   -0.7030   -6.0803 C.3       4 UNK        -0.1981 
     24 N          23.6384    0.5921   -4.8692 N.am      4 UNK        -0.4209 
     25 C          24.6642    1.4225   -4.6311 C.2       3 UNK         0.4942 
     26 O          25.3869    1.8849   -5.5110 O.2       3 UNK        -0.5208 
     27 CA         24.9780    1.7471   -3.1606 C.3       3 UNK         0.0250 
     28 CB         24.2785    3.0487   -2.7386 C.3       3 UNK        -0.1990 
     29 N          24.6305    0.6754   -2.2196 N.am      3 UNK        -0.4232 
     30 C          25.1084   -0.5762   -2.2608 C.2       2 UNK         0.4993 
     31 O          25.8678   -0.9988   -3.1396 O.2       2 UNK        -0.5286 
     32 CA         24.5955   -1.5281   -1.1776 C.3       2 UNK         0.0209 
     33 CB         23.2489   -2.1470   -1.5919 C.3       2 UNK        -0.1931 
     34 N          25.5742   -2.5908   -0.9831 N.am      2 UNK        -0.4546 
     35 C          25.8897   -3.1529    0.1898 C.2       1 UNK         0.5154 
     36 O          25.3543   -2.8505    1.2580 O.2       1 UNK        -0.5181 
     37 C          27.4862   -1.2793   -6.7422 C.2       5 UNK         0.5014 
     38 O          28.0298   -1.3628   -7.8432 O.2       5 UNK        -0.5248 
     39 N          27.7892   -0.3515   -5.8211 N.am      6 UNK        -0.4434 
     40 CA         28.8630    0.6344   -5.9519 C.3       6 UNK         0.0363 
     41 CB         28.9904    1.4405   -4.6507 C.3       6 UNK        -0.1936 
     42 C          28.7029    1.5661   -7.1631 C.2       6 UNK         0.5081 
     43 O          29.6805    1.8170   -7.8636 O.2       6 UNK        -0.5248 
     44 N          27.4690    2.0165   -7.4277 N.am      7 UNK        -0.4718 
     45 CA         27.1073    2.8488   -8.5802 C.3       7 UNK         0.0273 
     46 CB         25.6502    3.3134   -8.4248 C.3       7 UNK        -0.1935 
     47 C          27.3052    2.1638   -9.9462 C.2       7 UNK         0.5018 
     48 O          27.4152    2.8639  -10.9535 O.2       7 UNK        -0.5186 
     49 N          27.3488    0.8254   -9.9629 N.am      8 UNK        -0.4240 
     50 CA         27.6008    0.0070  -11.1487 C.3       8 UNK         0.0235 
     51 CB         26.6543   -1.2064  -11.1102 C.3       8 UNK        -0.2000 
     52 C          29.0713   -0.4441  -11.2485 C.2       8 UNK         0.4941 
     53 O          29.3936   -1.2024  -12.1653 O.2       8 UNK        -0.5273 
     54 N          29.9315   -0.0045  -10.3204 N.am      9 UNK        -0.4262 
     55 CA         31.3309   -0.4064  -10.2031 C.3       9 UNK         0.0264 
     56 CB         31.4841   -1.2061   -8.8990 C.3       9 UNK        -0.1955 
     57 C          32.2507    0.8223  -10.2035 C.2       9 UNK         0.5031 
     58 O          31.7811    1.9626  -10.1948 O.2       9 UNK        -0.5390 
     59 N          33.5646    0.5623  -10.1999 N.am      10 UNK        -0.4204 
     60 CA         34.6176    1.5815  -10.1602 C.3       10 UNK         0.0237 
     61 CB         35.9678    0.9226  -10.4891 C.3       10 UNK        -0.1985 
     62 C          34.7047    2.3453   -8.8248 C.2       10 UNK         0.4970 
     63 O          35.2481    3.4507   -8.8110 O.2       10 UNK        -0.4914 
     64 N          34.1918    1.7550   -7.7354 N.am      11 UNK        -0.4285 
     65 CA         34.1562    2.3701   -6.3997 C.3       11 UNK         0.1007 
     66 C          33.1191    3.5207   -6.2286 C.2       11 UNK         0.5703 
     67 N          32.1757    3.7135   -7.1428 N.am      11 UNK        -0.7361 
     68 O          33.1883    4.2660   -5.2539 O.2       11 UNK        -0.4986 
     69 C69        34.0651    1.3067   -5.2723 C.3       12 UNK        -0.0947 
     70 S70        32.5021    0.3640   -5.2487 S.3       12 UNK        -0.2240 
     71 C71        33.0950   -1.3306   -4.9705 C.3       12 UNK         0.0194 
     72 H72        27.2490   -6.3635   -3.2441 H         1 UNK         0.0906 
     73 H73        26.0725   -7.5888   -2.7796 H         1 UNK         0.0906 
     74 H74        25.5321   -6.1031   -3.5655 H         1 UNK         0.0906 
     75 H75        27.7900   -4.7988   -1.6897 H         1 UNK         0.3140 
     76 H76        26.7071   -4.9512    0.9615 H         1 UNK         0.1085 
     77 H77        28.3185   -3.0732    1.4431 H         1 UNK         0.0836 
     78 H78        29.0535   -4.4934    0.7779 H         1 UNK         0.0836 
     79 H79        31.2952   -3.6790   -0.8510 H         1 UNK         0.0731 
     80 H80        30.0644   -4.8075   -1.3634 H         1 UNK         0.0731 
     81 H81        32.2980   -2.1068   -2.4766 H         1 UNK         0.1312 
     82 H82        31.3513   -2.6115   -6.6222 H         1 UNK         0.1406 
     83 H83        29.1144   -4.7253   -3.6436 H         1 UNK         0.1631 
     84 H84        29.7860   -5.2131   -6.7447 H         1 UNK         0.0717 
     85 H85        29.2361   -3.6362   -7.2321 H         1 UNK         0.0717 
     86 H86        25.9627   -3.5855   -4.6930 H         1 UNK         0.0934 
     87 H87        27.4957   -2.8032   -4.5471 H         1 UNK         0.0934 
     88 H88        26.0949   -2.8222   -7.2665 H         1 UNK         0.0739 
     89 H89        25.0765   -1.3519   -4.9603 H         1 UNK         0.3093 
     90 H90        23.1429    0.9033   -6.8610 H         1 UNK         0.0818 
     91 H91        21.1476   -0.0524   -5.7306 H         1 UNK         0.0819 
     92 H92        21.6454   -1.0932   -7.0528 H         1 UNK         0.0819 
     93 H93        22.0187   -1.5503   -5.3968 H         1 UNK         0.0819 
     94 H94        23.0924    0.2723   -4.0828 H         1 UNK         0.3041 
     95 H95        26.0562    1.9016   -3.0884 H         1 UNK         0.0784 
     96 H96        24.5400    3.8674   -3.4108 H         1 UNK         0.0793 
     97 H97        23.1924    2.9485   -2.7545 H         1 UNK         0.0793 
     98 H98        24.5744    3.3517   -1.7340 H         1 UNK         0.0793 
     99 H99        23.9958    0.9266   -1.4746 H         1 UNK         0.3024 
    100 H100       24.4727   -0.9627   -0.2507 H         1 UNK         0.1171 
    101 H101       22.4874   -1.3794   -1.7349 H         1 UNK         0.0786 
    102 H102       22.8777   -2.8304   -0.8278 H         1 UNK         0.0786 
    103 H103       23.3323   -2.7061   -2.5251 H         1 UNK         0.0786 
    104 H104       26.1163   -2.8276   -1.8036 H         1 UNK         0.2977 
    105 H105       27.2746   -0.3510   -4.9497 H         1 UNK         0.3127 
    106 H106       29.7847    0.0703   -6.0979 H         1 UNK         0.0770 
    107 H107       28.0886    2.0164   -4.4425 H         1 UNK         0.0814 
    108 H108       29.8209    2.1454   -4.7138 H         1 UNK         0.0814 
    109 H109       29.1841    0.7894   -3.7979 H         1 UNK         0.0814 
    110 H110       26.7206    1.8045   -6.7690 H         1 UNK         0.2983 
    111 H111       27.7535    3.7290   -8.5670 H         1 UNK         0.0947 
    112 H112       24.9615    2.4679   -8.3924 H         1 UNK         0.0806 
    113 H113       25.5137    3.8905   -7.5100 H         1 UNK         0.0806 
    114 H114       25.3490    3.9509   -9.2572 H         1 UNK         0.0806 
    115 H115       27.2973    0.3246   -9.0828 H         1 UNK         0.3000 
    116 H116       27.3789    0.5791  -12.0519 H         1 UNK         0.0850 
    117 H117       26.7563   -1.8146  -12.0098 H         1 UNK         0.0810 
    118 H118       25.6116   -0.8944  -11.0471 H         1 UNK         0.0810 
    119 H119       26.8605   -1.8511  -10.2549 H         1 UNK         0.0810 
    120 H120       29.6271    0.6810   -9.6358 H         1 UNK         0.3040 
    121 H121       31.6232   -1.0378  -11.0446 H         1 UNK         0.0766 
    122 H122       32.4934   -1.6005   -8.7792 H         1 UNK         0.0812 
    123 H123       30.8019   -2.0566   -8.8844 H         1 UNK         0.0812 
    124 H124       31.2625   -0.5900   -8.0264 H         1 UNK         0.0812 
    125 H125       33.8701   -0.4003  -10.2239 H         1 UNK         0.3205 
    126 H126       34.4001    2.3174  -10.9375 H         1 UNK         0.0754 
    127 H127       36.7706    1.6614  -10.5012 H         1 UNK         0.0769 
    128 H128       35.9513    0.4512  -11.4720 H         1 UNK         0.0769 
    129 H129       36.2367    0.1622   -9.7546 H         1 UNK         0.0769 
    130 H130       33.7424    0.8573   -7.8247 H         1 UNK         0.2981 
    131 H131       35.1250    2.8552   -6.2644 H         1 UNK         0.0541 
    132 H132       32.0708    3.0813   -7.9239 H         1 UNK         0.3459 
    133 H133       31.5155    4.4627   -7.0168 H         1 UNK         0.3459 
    134 H134       34.1869    1.7798   -4.2963 H         1 UNK         0.0612 
    135 H135       34.9015    0.6125   -5.3662 H         1 UNK         0.0612 
    136 H136       33.8468   -1.3249   -4.1796 H         1 UNK         0.0624 
    137 H137       33.5936   -1.6911   -5.8714 H         1 UNK         0.0624 
@<TRIPOS>BOND
     1    1    2 1    
     2    1   72 1    
     3    1   73 1    
     4    1   74 1    
     5    2    3 2    
     6    2    4 am   BACKBONE|DICT|INTERRES
     7    4    5 1    
     8    4   75 1    
     9    5    6 1    
    10    5   35 1    
    11    5   76 1    
    12    6    7 1    
    13    6   77 1    
    14    6   78 1    
    15    7    8 1    
    16    8    9 1    
    17    8   79 1    
    18    8   80 1    
    19    9   10 ar   
    20    9   14 ar   
    21   10   11 ar   
    22   10   81 1    
    23   11   12 ar   
    24   11   71 1    
    25   12   13 ar   
    26   12   82 1    
    27   13   14 ar   
    28   13   15 1    
    29   14   83 1    
    30   15   16 1    
    31   15   84 1    
    32   15   85 1    
    33   16   17 1    
    34   17   18 1    
    35   17   86 1    
    36   17   87 1    
    37   18   19 1    
    38   18   37 1    
    39   18   88 1    
    40   19   20 am   BACKBONE|DICT|INTERRES
    41   19   89 1    
    42   20   21 2    
    43   20   22 1    
    44   22   23 1    
    45   22   24 1    
    46   22   90 1    
    47   23   91 1    
    48   23   92 1    
    49   23   93 1    
    50   24   25 am   BACKBONE|DICT|INTERRES
    51   24   94 1    
    52   25   26 2    
    53   25   27 1    
    54   27   28 1    
    55   27   29 1    
    56   27   95 1    
    57   28   96 1    
    58   28   97 1    
    59   28   98 1    
    60   29   30 am   BACKBONE|DICT|INTERRES
    61   29   99 1    
    62   30   31 2    
    63   30   32 1    
    64   32   33 1    
    65   32   34 1    
    66   32  100 1    
    67   33  101 1    
    68   33  102 1    
    69   33  103 1    
    70   34   35 am   BACKBONE|DICT|INTERRES
    71   34  104 1    
    72   35   36 2    
    73   37   38 2    
    74   37   39 am   BACKBONE|DICT|INTERRES
    75   39   40 1    
    76   39  105 1    
    77   40   41 1    
    78   40   42 1    
    79   40  106 1    
    80   41  107 1    
    81   41  108 1    
    82   41  109 1    
    83   42   43 2    
    84   42   44 am   BACKBONE|DICT|INTERRES
    85   44   45 1    
    86   44  110 1    
    87   45   46 1    
    88   45   47 1    
    89   45  111 1    
    90   46  112 1    
    91   46  113 1    
    92   46  114 1    
    93   47   48 2    
    94   47   49 am   BACKBONE|DICT|INTERRES
    95   49   50 1    
    96   49  115 1    
    97   50   51 1    
    98   50   52 1    
    99   50  116 1    
   100   51  117 1    
   101   51  118 1    
   102   51  119 1    
   103   52   53 2    
   104   52   54 am   BACKBONE|DICT|INTERRES
   105   54   55 1    
   106   54  120 1    
   107   55   56 1    
   108   55   57 1    
   109   55  121 1    
   110   56  122 1    
   111   56  123 1    
   112   56  124 1    
   113   57   58 2    
   114   57   59 am   BACKBONE|DICT|INTERRES
   115   59   60 1    
   116   59  125 1    
   117   60   61 1    
   118   60   62 1    
   119   60  126 1    
   120   61  127 1    
   121   61  128 1    
   122   61  129 1    
   123   62   63 2    
   124   62   64 am   BACKBONE|DICT|INTERRES
   125   64   65 1    
   126   64  130 1    
   127   65   66 1    
   128   65   69 1    
   129   65  131 1    
   130   66   67 am   BACKBONE|DICT|INTERRES
   131   66   68 2    
   132   67  132 1    
   133   67  133 1    
   134   69   70 1    
   135   69  134 1    
   136   69  135 1    
   137   70   71 1    
   138   71  136 1    
   139   71  137 1    
@<TRIPOS>SUBSTRUCTURE
     1 UNK         1 GROUP             0       ****    0 ROOT    
