@<TRIPOS>MOLECULE
3R137
137   139    1
SMALL
USER_CHARGES


@<TRIPOS>ATOM
      1 CA         27.4572   -6.6334   -3.9071 C.3       0 UNK        -0.2020 
      2 C          27.4504   -5.1780   -3.4672 C.2       0 UNK         0.4855 
      3 O          27.2877   -4.2969   -4.3093 O.2       0 UNK        -0.5197 
      4 N          27.6023   -4.9335   -2.1569 N.am      1 UNK        -0.4892 
      5 CA         27.6768   -3.6292   -1.4792 C.3       1 UNK         0.0835 
      6 C6         29.0976   -3.0083   -1.5237 C.3       12 UNK        -0.0855 
      7 S7         29.4205   -2.0093   -0.0260 S.3       12 UNK        -0.2931 
      8 C8         31.1983   -1.6475   -0.1873 C.3       12 UNK         0.0378 
      9 C9         31.4896   -0.9027   -1.4790 C.ar      12 UNK        -0.0802 
     10 C10        32.1890   -1.5311   -2.5101 C.ar      12 UNK        -0.0944 
     11 C11        32.3855   -0.8828   -3.7317 C.ar      12 UNK        -0.0787 
     12 C12        31.8661    0.4033   -3.9199 C.ar      12 UNK        -0.0862 
     13 C13        31.1800    1.0533   -2.8856 C.ar      12 UNK        -0.0733 
     14 C14        31.0211    0.4005   -1.6582 C.ar      12 UNK        -0.0832 
     15 C15        30.6307    2.4621   -3.1068 C.3       12 UNK         0.0240 
     16 S16        29.0032    2.7934   -2.3288 S.3       12 UNK        -0.2522 
     17 C17        27.9644    1.4068   -2.9081 C.3       12 UNK        -0.0967 
     18 CA         27.6750    1.4509   -4.4273 C.3       5 UNK         0.0660 
     19 N          27.5657    0.1069   -4.9957 N.am      5 UNK        -0.4015 
     20 C          27.7381   -0.1508   -6.2992 C.2       4 UNK         0.4946 
     21 O          27.9566    0.7156   -7.1453 O.2       4 UNK        -0.5353 
     22 CA         27.6179   -1.6101   -6.7471 C.3       4 UNK         0.0277 
     23 CB         28.9292   -2.3633   -6.4772 C.3       4 UNK        -0.1981 
     24 N          26.4972   -2.3157   -6.1255 N.am      4 UNK        -0.4209 
     25 C          25.2056   -2.0107   -6.3169 C.2       3 UNK         0.4942 
     26 O          24.8181   -1.0267   -6.9483 O.2       3 UNK        -0.5208 
     27 CA         24.1774   -2.9583   -5.6873 C.3       3 UNK         0.0250 
     28 CB         24.2837   -4.3777   -6.2728 C.3       3 UNK        -0.1990 
     29 N          24.3469   -3.0055   -4.2374 N.am      3 UNK        -0.4232 
     30 C          23.7460   -2.1673   -3.3826 C.2       2 UNK         0.4993 
     31 O          22.9264   -1.3170   -3.7255 O.2       2 UNK        -0.5286 
     32 CA         24.0939   -2.2902   -1.8885 C.3       2 UNK         0.0209 
     33 CB         22.9223   -2.9165   -1.1134 C.3       2 UNK        -0.1931 
     34 N          25.3114   -3.0556   -1.6079 N.am      2 UNK        -0.4546 
     35 C          26.5543   -2.6565   -1.9089 C.2       1 UNK         0.5154 
     36 O          26.8059   -1.6224   -2.5348 O.2       1 UNK        -0.5181 
     37 C          26.4672    2.3414   -4.7846 C.2       5 UNK         0.5014 
     38 O          26.6441    3.5482   -4.9538 O.2       5 UNK        -0.5248 
     39 N          25.2766    1.7418   -4.9478 N.am      6 UNK        -0.4434 
     40 CA         24.0741    2.4320   -5.4269 C.3       6 UNK         0.0363 
     41 CB         22.8296    1.5753   -5.1566 C.3       6 UNK        -0.1936 
     42 C          24.1683    2.7919   -6.9183 C.2       6 UNK         0.5081 
     43 O          23.7472    3.8815   -7.3066 O.2       6 UNK        -0.5248 
     44 N          24.7464    1.8870   -7.7209 N.am      7 UNK        -0.4718 
     45 CA         25.0505    2.1071   -9.1379 C.3       7 UNK         0.0273 
     46 CB         25.3423    0.7485   -9.7969 C.3       7 UNK        -0.1935 
     47 C          26.2293    3.0723   -9.3709 C.2       7 UNK         0.5018 
     48 O          26.3710    3.5790  -10.4844 O.2       7 UNK        -0.5186 
     49 N          27.0575    3.2789   -8.3347 N.am      8 UNK        -0.4240 
     50 CA         28.3443    3.9856   -8.3325 C.3       8 UNK         0.0235 
     51 CB         28.1581    5.4900   -8.6228 C.3       8 UNK        -0.2000 
     52 C          29.3705    3.3034   -9.2594 C.2       8 UNK         0.4941 
     53 O          30.1083    3.9807   -9.9787 O.2       8 UNK        -0.5273 
     54 N          29.3737    1.9661   -9.2367 N.am      9 UNK        -0.4262 
     55 CA         30.2197    1.1048  -10.0546 C.3       9 UNK         0.0264 
     56 CB         29.3975   -0.1293  -10.4641 C.3       9 UNK        -0.1955 
     57 C          31.4650    0.6715   -9.2714 C.2       9 UNK         0.5031 
     58 O          31.4376    0.6147   -8.0389 O.2       9 UNK        -0.5390 
     59 N          32.5240    0.3233  -10.0113 N.am      10 UNK        -0.4204 
     60 CA         33.7092   -0.3433   -9.4751 C.3       10 UNK         0.0237 
     61 CB         34.8856   -0.1551  -10.4471 C.3       10 UNK        -0.1985 
     62 C          33.4106   -1.8356   -9.2645 C.2       10 UNK         0.4970 
     63 O          32.7593   -2.4501  -10.1132 O.2       10 UNK        -0.4914 
     64 N          33.9068   -2.3879   -8.1544 N.am      11 UNK        -0.4285 
     65 CA         33.7187   -3.7971   -7.7729 C.3       11 UNK         0.1007 
     66 C          34.7155   -4.7813   -8.4534 C.2       11 UNK         0.5703 
     67 N          35.7142   -4.3167   -9.1957 N.am      11 UNK        -0.7361 
     68 O          34.5721   -5.9939   -8.3151 O.2       11 UNK        -0.4986 
     69 C69        33.7172   -3.9670   -6.2319 C.3       12 UNK        -0.0947 
     70 S70        32.3429   -3.0764   -5.4256 S.3       12 UNK        -0.2240 
     71 C71        33.1817   -1.5752   -4.8277 C.3       12 UNK         0.0194 
     72 H72        27.6031   -7.3152   -3.0695 H         1 UNK         0.0906 
     73 H73        26.5121   -6.8832   -4.3886 H         1 UNK         0.0906 
     74 H74        28.2594   -6.8014   -4.6251 H         1 UNK         0.0906 
     75 H75        27.7004   -5.7274   -1.5384 H         1 UNK         0.3140 
     76 H76        27.4659   -3.8663   -0.4345 H         1 UNK         0.1085 
     77 H77        29.8507   -3.7972   -1.5566 H         1 UNK         0.0836 
     78 H78        29.2539   -2.4119   -2.4251 H         1 UNK         0.0836 
     79 H79        31.7621   -2.5804   -0.1352 H         1 UNK         0.0731 
     80 H80        31.5202   -1.0430    0.6619 H         1 UNK         0.0731 
     81 H81        32.5669   -2.5352   -2.3729 H         1 UNK         0.1312 
     82 H82        32.0047    0.9011   -4.8706 H         1 UNK         0.1406 
     83 H83        30.4884    0.8858   -0.8517 H         1 UNK         0.1631 
     84 H84        30.5583    2.6773   -4.1736 H         1 UNK         0.0717 
     85 H85        31.3514    3.1759   -2.7062 H         1 UNK         0.0717 
     86 H86        28.4766    0.4805   -2.6462 H         1 UNK         0.0934 
     87 H87        27.0398    1.3861   -2.3277 H         1 UNK         0.0934 
     88 H88        28.5355    1.9081   -4.9184 H         1 UNK         0.0739 
     89 H89        27.3695   -0.6515   -4.3498 H         1 UNK         0.3093 
     90 H90        27.4445   -1.6080   -7.8251 H         1 UNK         0.0818 
     91 H91        29.1469   -2.4271   -5.4098 H         1 UNK         0.0819 
     92 H92        28.8938   -3.3791   -6.8705 H         1 UNK         0.0819 
     93 H93        29.7737   -1.8600   -6.9517 H         1 UNK         0.0819 
     94 H94        26.7383   -3.1074   -5.5288 H         1 UNK         0.3041 
     95 H95        23.1824   -2.5773   -5.9290 H         1 UNK         0.0784 
     96 H96        24.1749   -4.3594   -7.3581 H         1 UNK         0.0793 
     97 H97        25.2417   -4.8481   -6.0495 H         1 UNK         0.0793 
     98 H98        23.4980   -5.0237   -5.8808 H         1 UNK         0.0793 
     99 H99        25.0513   -3.6358   -3.8788 H         1 UNK         0.3024 
    100 H100       24.2461   -1.2736   -1.5182 H         1 UNK         0.1171 
    101 H101       22.0027   -2.3504   -1.2693 H         1 UNK         0.0786 
    102 H102       23.1146   -2.9257   -0.0403 H         1 UNK         0.0786 
    103 H103       22.7305   -3.9422   -1.4310 H         1 UNK         0.0786 
    104 H104       25.1905   -3.9390   -1.1327 H         1 UNK         0.2977 
    105 H105       25.2096    0.7419   -4.8210 H         1 UNK         0.3127 
    106 H106       23.9694    3.3638   -4.8665 H         1 UNK         0.0770 
    107 H107       22.8784    0.6157   -5.6730 H         1 UNK         0.0814 
    108 H108       21.9255    2.0821   -5.4965 H         1 UNK         0.0814 
    109 H109       22.7079    1.3791   -4.0913 H         1 UNK         0.0814 
    110 H110       24.9976    0.9798   -7.3388 H         1 UNK         0.2983 
    111 H111       24.1707    2.5424   -9.6168 H         1 UNK         0.0947 
    112 H112       25.5429    0.8639  -10.8629 H         1 UNK         0.0806 
    113 H113       24.4958    0.0688   -9.6972 H         1 UNK         0.0806 
    114 H114       26.2127    0.2648   -9.3514 H         1 UNK         0.0806 
    115 H115       26.8544    2.7598   -7.4906 H         1 UNK         0.3000 
    116 H116       28.7393    3.8906   -7.3198 H         1 UNK         0.0850 
    117 H117       29.0962    6.0305   -8.4914 H         1 UNK         0.0810 
    118 H118       27.4295    5.9359   -7.9457 H         1 UNK         0.0810 
    119 H119       27.8217    5.6689   -9.6444 H         1 UNK         0.0810 
    120 H120       28.8089    1.4944   -8.5299 H         1 UNK         0.3040 
    121 H121       30.5304    1.6370  -10.9564 H         1 UNK         0.0766 
    122 H122       28.5068    0.1562  -11.0243 H         1 UNK         0.0812 
    123 H123       29.0756   -0.7035   -9.5942 H         1 UNK         0.0812 
    124 H124       29.9798   -0.7990  -11.0985 H         1 UNK         0.0812 
    125 H125       32.4439    0.3528  -11.0177 H         1 UNK         0.3205 
    126 H126       33.9718    0.1138   -8.5182 H         1 UNK         0.0754 
    127 H127       35.7938   -0.6149  -10.0552 H         1 UNK         0.0769 
    128 H128       35.1026    0.9014  -10.6066 H         1 UNK         0.0769 
    129 H129       34.6849   -0.6068  -11.4197 H         1 UNK         0.0769 
    130 H130       34.4567   -1.8265   -7.5223 H         1 UNK         0.2981 
    131 H131       32.7325   -4.1079   -8.1239 H         1 UNK         0.0541 
    132 H132       35.8403   -3.3262   -9.3238 H         1 UNK         0.3459 
    133 H133       36.3468   -4.9678   -9.6337 H         1 UNK         0.3459 
    134 H134       33.6032   -5.0193   -5.9653 H         1 UNK         0.0612 
    135 H135       34.6718   -3.6529   -5.8068 H         1 UNK         0.0612 
    136 H136       33.3496   -0.9024   -5.6698 H         1 UNK         0.0624 
    137 H137       34.1637   -1.8334   -4.4293 H         1 UNK         0.0624 
@<TRIPOS>BOND
     1    1    2 1    
     2    1   72 1    
     3    1   73 1    
     4    1   74 1    
     5    2    3 2    
     6    2    4 am   BACKBONE|DICT|INTERRES
     7    4    5 1    
     8    4   75 1    
     9    5    6 1    
    10    5   35 1    
    11    5   76 1    
    12    6    7 1    
    13    6   77 1    
    14    6   78 1    
    15    7    8 1    
    16    8    9 1    
    17    8   79 1    
    18    8   80 1    
    19    9   10 ar   
    20    9   14 ar   
    21   10   11 ar   
    22   10   81 1    
    23   11   12 ar   
    24   11   71 1    
    25   12   13 ar   
    26   12   82 1    
    27   13   14 ar   
    28   13   15 1    
    29   14   83 1    
    30   15   16 1    
    31   15   84 1    
    32   15   85 1    
    33   16   17 1    
    34   17   18 1    
    35   17   86 1    
    36   17   87 1    
    37   18   19 1    
    38   18   37 1    
    39   18   88 1    
    40   19   20 am   BACKBONE|DICT|INTERRES
    41   19   89 1    
    42   20   21 2    
    43   20   22 1    
    44   22   23 1    
    45   22   24 1    
    46   22   90 1    
    47   23   91 1    
    48   23   92 1    
    49   23   93 1    
    50   24   25 am   BACKBONE|DICT|INTERRES
    51   24   94 1    
    52   25   26 2    
    53   25   27 1    
    54   27   28 1    
    55   27   29 1    
    56   27   95 1    
    57   28   96 1    
    58   28   97 1    
    59   28   98 1    
    60   29   30 am   BACKBONE|DICT|INTERRES
    61   29   99 1    
    62   30   31 2    
    63   30   32 1    
    64   32   33 1    
    65   32   34 1    
    66   32  100 1    
    67   33  101 1    
    68   33  102 1    
    69   33  103 1    
    70   34   35 am   BACKBONE|DICT|INTERRES
    71   34  104 1    
    72   35   36 2    
    73   37   38 2    
    74   37   39 am   BACKBONE|DICT|INTERRES
    75   39   40 1    
    76   39  105 1    
    77   40   41 1    
    78   40   42 1    
    79   40  106 1    
    80   41  107 1    
    81   41  108 1    
    82   41  109 1    
    83   42   43 2    
    84   42   44 am   BACKBONE|DICT|INTERRES
    85   44   45 1    
    86   44  110 1    
    87   45   46 1    
    88   45   47 1    
    89   45  111 1    
    90   46  112 1    
    91   46  113 1    
    92   46  114 1    
    93   47   48 2    
    94   47   49 am   BACKBONE|DICT|INTERRES
    95   49   50 1    
    96   49  115 1    
    97   50   51 1    
    98   50   52 1    
    99   50  116 1    
   100   51  117 1    
   101   51  118 1    
   102   51  119 1    
   103   52   53 2    
   104   52   54 am   BACKBONE|DICT|INTERRES
   105   54   55 1    
   106   54  120 1    
   107   55   56 1    
   108   55   57 1    
   109   55  121 1    
   110   56  122 1    
   111   56  123 1    
   112   56  124 1    
   113   57   58 2    
   114   57   59 am   BACKBONE|DICT|INTERRES
   115   59   60 1    
   116   59  125 1    
   117   60   61 1    
   118   60   62 1    
   119   60  126 1    
   120   61  127 1    
   121   61  128 1    
   122   61  129 1    
   123   62   63 2    
   124   62   64 am   BACKBONE|DICT|INTERRES
   125   64   65 1    
   126   64  130 1    
   127   65   66 1    
   128   65   69 1    
   129   65  131 1    
   130   66   67 am   BACKBONE|DICT|INTERRES
   131   66   68 2    
   132   67  132 1    
   133   67  133 1    
   134   69   70 1    
   135   69  134 1    
   136   69  135 1    
   137   70   71 1    
   138   71  136 1    
   139   71  137 1    
@<TRIPOS>SUBSTRUCTURE
     1 UNK         1 GROUP             0       ****    0 ROOT    
