@<TRIPOS>MOLECULE
3R137
137   139    1
SMALL
USER_CHARGES


@<TRIPOS>ATOM
      1 CA         23.7002   -6.9018   -0.6677 C.3       0 UNK        -0.2020 
      2 C          25.0587   -6.2191   -0.6095 C.2       0 UNK         0.4855 
      3 O          25.8734   -6.5516    0.2515 O.2       0 UNK        -0.5197 
      4 N          25.3053   -5.2665   -1.5158 N.am      1 UNK        -0.4892 
      5 CA         26.5501   -4.5001   -1.6143 C.3       1 UNK         0.0835 
      6 C6         27.5717   -5.1792   -2.5681 C.3       12 UNK        -0.0855 
      7 S7         29.2994   -4.6844   -2.2350 S.3       12 UNK        -0.2931 
      8 C8         29.7181   -3.7644   -3.7544 C.3       12 UNK         0.0378 
      9 C9         30.5612   -2.5287   -3.4814 C.ar      12 UNK        -0.0802 
     10 C10        31.7412   -2.2989   -4.1945 C.ar      12 UNK        -0.0944 
     11 C11        32.4770   -1.1277   -3.9864 C.ar      12 UNK        -0.0787 
     12 C12        32.0242   -0.1808   -3.0620 C.ar      12 UNK        -0.0862 
     13 C13        30.8449   -0.4011   -2.3449 C.ar      12 UNK        -0.0733 
     14 C14        30.1247   -1.5789   -2.5553 C.ar      12 UNK        -0.0832 
     15 C15        30.3448    0.6293   -1.3438 C.3       12 UNK         0.0240 
     16 S16        29.3729    1.9432   -2.1474 S.3       12 UNK        -0.2522 
     17 C17        27.9153    1.0309   -2.7591 C.3       12 UNK        -0.0967 
     18 CA         27.8941    0.9405   -4.3092 C.3       5 UNK         0.0660 
     19 N          27.2512   -0.2842   -4.7977 N.am      5 UNK        -0.4015 
     20 C          27.2221   -0.6744   -6.0815 C.2       4 UNK         0.4946 
     21 O          27.8689   -0.1307   -6.9782 O.2       4 UNK        -0.5353 
     22 CA         26.2669   -1.8247   -6.4489 C.3       4 UNK         0.0277 
     23 CB         26.9696   -3.1902   -6.4601 C.3       4 UNK        -0.1981 
     24 N          25.0925   -1.8864   -5.5769 N.am      4 UNK        -0.4209 
     25 C          24.0718   -1.0201   -5.6205 C.2       3 UNK         0.4942 
     26 O          23.9869   -0.1027   -6.4353 O.2       3 UNK        -0.5208 
     27 CA         22.9900   -1.1773   -4.5387 C.3       3 UNK         0.0250 
     28 CB         22.0025   -2.2941   -4.9129 C.3       3 UNK        -0.1990 
     29 N          23.5518   -1.4367   -3.2090 N.am      3 UNK        -0.4232 
     30 C          24.3242   -0.5712   -2.5374 C.2       2 UNK         0.4993 
     31 O          24.6234    0.5456   -2.9590 O.2       2 UNK        -0.5286 
     32 CA         24.8976   -1.0387   -1.1897 C.3       2 UNK         0.0209 
     33 CB         23.8982   -0.7569   -0.0567 C.3       2 UNK        -0.1931 
     34 N          25.3028   -2.4500   -1.1451 N.am      2 UNK        -0.4546 
     35 C          26.1993   -3.0371   -1.9534 C.2       1 UNK         0.5154 
     36 O          26.6957   -2.4757   -2.9315 O.2       1 UNK        -0.5181 
     37 C          27.2374    2.1921   -4.9269 C.2       5 UNK         0.5014 
     38 O          27.9340    3.0177   -5.5176 O.2       5 UNK        -0.5248 
     39 N          25.9037    2.2871   -4.8062 N.am      6 UNK        -0.4434 
     40 CA         25.0804    3.3768   -5.3382 C.3       6 UNK         0.0363 
     41 CB         23.6330    3.2118   -4.8482 C.3       6 UNK        -0.1936 
     42 C          25.1265    3.4838   -6.8716 C.2       6 UNK         0.5081 
     43 O          25.1875    4.5952   -7.3980 O.2       6 UNK        -0.5248 
     44 N          25.1266    2.3337   -7.5593 N.am      7 UNK        -0.4718 
     45 CA         25.2893    2.2352   -9.0132 C.3       7 UNK         0.0273 
     46 CB         24.8486    0.8366   -9.4742 C.3       7 UNK        -0.1935 
     47 C          26.7229    2.5244   -9.4986 C.2       7 UNK         0.5018 
     48 O          26.9027    2.7550  -10.6949 O.2       7 UNK        -0.5186 
     49 N          27.7015    2.4927   -8.5796 N.am      8 UNK        -0.4240 
     50 CA         29.1448    2.6356   -8.7913 C.3       8 UNK         0.0235 
     51 CB         29.4966    4.0666   -9.2502 C.3       8 UNK        -0.2000 
     52 C          29.6870    1.5449   -9.7309 C.2       8 UNK         0.4941 
     53 O          30.2220    1.8543  -10.7987 O.2       8 UNK        -0.5273 
     54 N          29.5069    0.2797   -9.3258 N.am      9 UNK        -0.4262 
     55 CA         29.8540   -0.9376  -10.0702 C.3       9 UNK         0.0264 
     56 CB         29.1682   -2.1360   -9.3900 C.3       9 UNK        -0.1955 
     57 C          31.3720   -1.1643  -10.2591 C.2       9 UNK         0.5031 
     58 O          31.9025   -2.1930   -9.8323 O.2       9 UNK        -0.5390 
     59 N          32.0370   -0.2037  -10.9128 N.am      10 UNK        -0.4204 
     60 CA         33.4444   -0.1397  -11.3278 C.3       10 UNK         0.0237 
     61 CB         33.7923   -1.2701  -12.3168 C.3       10 UNK        -0.1985 
     62 C          34.4607   -0.0776  -10.1749 C.2       10 UNK         0.4970 
     63 O          35.3056    0.8184  -10.1766 O.2       10 UNK        -0.4914 
     64 N          34.3754   -1.0267   -9.2353 N.am      11 UNK        -0.4285 
     65 CA         35.2697   -1.2002   -8.0759 C.3       11 UNK         0.1007 
     66 C          36.7535   -1.5237   -8.4385 C.2       11 UNK         0.5703 
     67 N          37.0478   -2.0083   -9.6396 N.am      11 UNK        -0.7361 
     68 O          37.6512   -1.3711   -7.6130 O.2       11 UNK        -0.4986 
     69 C69        35.1294   -0.0528   -7.0332 C.3       12 UNK        -0.0947 
     70 S70        33.4575    0.0091   -6.3075 S.3       12 UNK        -0.2240 
     71 C71        33.7643   -0.8896   -4.7569 C.3       12 UNK         0.0194 
     72 H72        23.1656   -6.7541    0.2703 H         1 UNK         0.0906 
     73 H73        23.0805   -6.5133   -1.4757 H         1 UNK         0.0906 
     74 H74        23.8257   -7.9730   -0.8229 H         1 UNK         0.0906 
     75 H75        24.5959   -5.0314   -2.1968 H         1 UNK         0.3140 
     76 H76        27.0056   -4.4567   -0.6219 H         1 UNK         0.1085 
     77 H77        27.3048   -5.0262   -3.6138 H         1 UNK         0.0836 
     78 H78        27.5381   -6.2601   -2.4228 H         1 UNK         0.0836 
     79 H79        28.8127   -3.4197   -4.2458 H         1 UNK         0.0731 
     80 H80        30.2153   -4.4391   -4.4528 H         1 UNK         0.0731 
     81 H81        32.0824   -3.0231   -4.9217 H         1 UNK         0.1312 
     82 H82        32.5857    0.7304   -2.9057 H         1 UNK         0.1406 
     83 H83        29.2108   -1.7606   -2.0073 H         1 UNK         0.1631 
     84 H84        31.1937    1.0837   -0.8307 H         1 UNK         0.0717 
     85 H85        29.7421    0.1530   -0.5687 H         1 UNK         0.0717 
     86 H86        27.9057    0.0368   -2.3168 H         1 UNK         0.0934 
     87 H87        27.0206    1.5149   -2.3634 H         1 UNK         0.0934 
     88 H88        28.9253    0.8962   -4.6682 H         1 UNK         0.0739 
     89 H89        26.7635   -0.8531   -4.1142 H         1 UNK         0.3093 
     90 H90        25.9260   -1.6279   -7.4669 H         1 UNK         0.0818 
     91 H91        27.9924   -3.1193   -6.8294 H         1 UNK         0.0819 
     92 H92        26.4411   -3.8917   -7.1057 H         1 UNK         0.0819 
     93 H93        27.0054   -3.6317   -5.4674 H         1 UNK         0.0819 
     94 H94        25.1104   -2.5749   -4.8386 H         1 UNK         0.3041 
     95 H95        22.4372   -0.2365   -4.4890 H         1 UNK         0.0784 
     96 H96        21.5620   -2.1107   -5.8941 H         1 UNK         0.0793 
     97 H97        22.4864   -3.2708   -4.9505 H         1 UNK         0.0793 
     98 H98        21.1814   -2.3530   -4.1981 H         1 UNK         0.0793 
     99 H99        23.3452   -2.3281   -2.7834 H         1 UNK         0.3024 
    100 H100       25.7926   -0.4420   -1.0032 H         1 UNK         0.1171 
    101 H101       24.3359   -0.9641    0.9200 H         1 UNK         0.0786 
    102 H102       23.5939    0.2910   -0.0557 H         1 UNK         0.0786 
    103 H103       22.9938   -1.3588   -0.1546 H         1 UNK         0.0786 
    104 H104       24.9262   -3.0000   -0.3856 H         1 UNK         0.2977 
    105 H105       25.4140    1.5764   -4.2637 H         1 UNK         0.3127 
    106 H106       25.4733    4.3110   -4.9317 H         1 UNK         0.0770 
    107 H107       23.1928    2.2776   -5.1986 H         1 UNK         0.0814 
    108 H108       23.0030    4.0262   -5.2084 H         1 UNK         0.0814 
    109 H109       23.5801    3.2170   -3.7594 H         1 UNK         0.0814 
    110 H110       24.9775    1.4628   -7.0557 H         1 UNK         0.2983 
    111 H111       24.6329    2.9725   -9.4805 H         1 UNK         0.0947 
    112 H112       24.8936    0.7502  -10.5606 H         1 UNK         0.0806 
    113 H113       23.8226    0.6225   -9.1743 H         1 UNK         0.0806 
    114 H114       25.4900    0.0591   -9.0594 H         1 UNK         0.0806 
    115 H115       27.4331    2.2814   -7.6261 H         1 UNK         0.3000 
    116 H116       29.6163    2.4746   -7.8202 H         1 UNK         0.0850 
    117 H117       30.5770    4.1955   -9.3252 H         1 UNK         0.0810 
    118 H118       29.1289    4.8090   -8.5419 H         1 UNK         0.0810 
    119 H119       29.0739    4.2978  -10.2284 H         1 UNK         0.0810 
    120 H120       29.0235    0.1338   -8.4402 H         1 UNK         0.3040 
    121 H121       29.4269   -0.8414  -11.0705 H         1 UNK         0.0766 
    122 H122       28.0900   -1.9915   -9.3186 H         1 UNK         0.0812 
    123 H123       29.5557   -2.2912   -8.3827 H         1 UNK         0.0812 
    124 H124       29.3353   -3.0565   -9.9510 H         1 UNK         0.0812 
    125 H125       31.4877    0.6314  -11.1208 H         1 UNK         0.3205 
    126 H126       33.5383    0.8021  -11.8711 H         1 UNK         0.0754 
    127 H127       34.8155   -1.1677  -12.6812 H         1 UNK         0.0769 
    128 H128       33.1363   -1.2483  -13.1871 H         1 UNK         0.0769 
    129 H129       33.7075   -2.2567  -11.8603 H         1 UNK         0.0769 
    130 H130       33.6100   -1.6921   -9.3203 H         1 UNK         0.2981 
    131 H131       34.9237   -2.1128   -7.5898 H         1 UNK         0.0541 
    132 H132       36.3226   -2.1577  -10.3220 H         1 UNK         0.3459 
    133 H133       38.0062   -2.2262   -9.8623 H         1 UNK         0.3459 
    134 H134       35.8493   -0.1665   -6.2211 H         1 UNK         0.0612 
    135 H135       35.3483    0.9141   -7.4877 H         1 UNK         0.0612 
    136 H136       34.2453   -1.8433   -4.9806 H         1 UNK         0.0624 
    137 H137       34.4683   -0.3242   -4.1443 H         1 UNK         0.0624 
@<TRIPOS>BOND
     1    1    2 1    
     2    1   72 1    
     3    1   73 1    
     4    1   74 1    
     5    2    3 2    
     6    2    4 am   BACKBONE|DICT|INTERRES
     7    4    5 1    
     8    4   75 1    
     9    5    6 1    
    10    5   35 1    
    11    5   76 1    
    12    6    7 1    
    13    6   77 1    
    14    6   78 1    
    15    7    8 1    
    16    8    9 1    
    17    8   79 1    
    18    8   80 1    
    19    9   10 ar   
    20    9   14 ar   
    21   10   11 ar   
    22   10   81 1    
    23   11   12 ar   
    24   11   71 1    
    25   12   13 ar   
    26   12   82 1    
    27   13   14 ar   
    28   13   15 1    
    29   14   83 1    
    30   15   16 1    
    31   15   84 1    
    32   15   85 1    
    33   16   17 1    
    34   17   18 1    
    35   17   86 1    
    36   17   87 1    
    37   18   19 1    
    38   18   37 1    
    39   18   88 1    
    40   19   20 am   BACKBONE|DICT|INTERRES
    41   19   89 1    
    42   20   21 2    
    43   20   22 1    
    44   22   23 1    
    45   22   24 1    
    46   22   90 1    
    47   23   91 1    
    48   23   92 1    
    49   23   93 1    
    50   24   25 am   BACKBONE|DICT|INTERRES
    51   24   94 1    
    52   25   26 2    
    53   25   27 1    
    54   27   28 1    
    55   27   29 1    
    56   27   95 1    
    57   28   96 1    
    58   28   97 1    
    59   28   98 1    
    60   29   30 am   BACKBONE|DICT|INTERRES
    61   29   99 1    
    62   30   31 2    
    63   30   32 1    
    64   32   33 1    
    65   32   34 1    
    66   32  100 1    
    67   33  101 1    
    68   33  102 1    
    69   33  103 1    
    70   34   35 am   BACKBONE|DICT|INTERRES
    71   34  104 1    
    72   35   36 2    
    73   37   38 2    
    74   37   39 am   BACKBONE|DICT|INTERRES
    75   39   40 1    
    76   39  105 1    
    77   40   41 1    
    78   40   42 1    
    79   40  106 1    
    80   41  107 1    
    81   41  108 1    
    82   41  109 1    
    83   42   43 2    
    84   42   44 am   BACKBONE|DICT|INTERRES
    85   44   45 1    
    86   44  110 1    
    87   45   46 1    
    88   45   47 1    
    89   45  111 1    
    90   46  112 1    
    91   46  113 1    
    92   46  114 1    
    93   47   48 2    
    94   47   49 am   BACKBONE|DICT|INTERRES
    95   49   50 1    
    96   49  115 1    
    97   50   51 1    
    98   50   52 1    
    99   50  116 1    
   100   51  117 1    
   101   51  118 1    
   102   51  119 1    
   103   52   53 2    
   104   52   54 am   BACKBONE|DICT|INTERRES
   105   54   55 1    
   106   54  120 1    
   107   55   56 1    
   108   55   57 1    
   109   55  121 1    
   110   56  122 1    
   111   56  123 1    
   112   56  124 1    
   113   57   58 2    
   114   57   59 am   BACKBONE|DICT|INTERRES
   115   59   60 1    
   116   59  125 1    
   117   60   61 1    
   118   60   62 1    
   119   60  126 1    
   120   61  127 1    
   121   61  128 1    
   122   61  129 1    
   123   62   63 2    
   124   62   64 am   BACKBONE|DICT|INTERRES
   125   64   65 1    
   126   64  130 1    
   127   65   66 1    
   128   65   69 1    
   129   65  131 1    
   130   66   67 am   BACKBONE|DICT|INTERRES
   131   66   68 2    
   132   67  132 1    
   133   67  133 1    
   134   69   70 1    
   135   69  134 1    
   136   69  135 1    
   137   70   71 1    
   138   71  136 1    
   139   71  137 1    
@<TRIPOS>SUBSTRUCTURE
     1 UNK         1 GROUP             0       ****    0 ROOT    
