@<TRIPOS>MOLECULE
3R137
137   139    1
SMALL
USER_CHARGES


@<TRIPOS>ATOM
      1 CA         25.1628   -5.0031   -4.1749 C.3       0 UNK        -0.2020 
      2 C          25.4430   -3.9376   -3.1278 C.2       0 UNK         0.4855 
      3 O          24.5278   -3.2179   -2.7275 O.2       0 UNK        -0.5197 
      4 N          26.6999   -3.8407   -2.6754 N.am      1 UNK        -0.4892 
      5 CA         27.1532   -2.9502   -1.5998 C.3       1 UNK         0.0835 
      6 C6         28.6499   -3.1519   -1.2577 C.3       12 UNK        -0.0855 
      7 S7         29.0147   -4.8800   -0.7783 S.3       12 UNK        -0.2931 
      8 C8         30.8026   -5.0347   -1.1277 C.3       12 UNK         0.0378 
      9 C9         31.1699   -4.6447   -2.5548 C.ar      12 UNK        -0.0802 
     10 C10        32.1801   -3.7041   -2.7843 C.ar      12 UNK        -0.0944 
     11 C11        32.4749   -3.2778   -4.0829 C.ar      12 UNK        -0.0787 
     12 C12        31.7428   -3.7986   -5.1546 C.ar      12 UNK        -0.0862 
     13 C13        30.7320   -4.7393   -4.9390 C.ar      12 UNK        -0.0733 
     14 C14        30.4709   -5.1820   -3.6407 C.ar      12 UNK        -0.0832 
     15 C15        29.8729   -5.2185   -6.1011 C.3       12 UNK         0.0240 
     16 S16        28.1765   -4.5499   -6.0040 S.3       12 UNK        -0.2522 
     17 C17        28.4772   -2.7601   -5.8108 C.3       12 UNK        -0.0967 
     18 CA         27.6239   -1.8955   -6.7609 C.3       5 UNK         0.0660 
     19 N          26.1807   -1.9955   -6.5088 N.am      5 UNK        -0.4015 
     20 C          25.2553   -1.5583   -7.3747 C.2       4 UNK         0.4946 
     21 O          25.5301   -1.0264   -8.4490 O.2       4 UNK        -0.5353 
     22 CA         23.7748   -1.7097   -6.9913 C.3       4 UNK         0.0277 
     23 CB         23.2481   -3.1016   -7.3754 C.3       4 UNK        -0.1981 
     24 N          23.4551   -1.4235   -5.5899 N.am      4 UNK        -0.4209 
     25 C          23.6775   -0.2551   -4.9709 C.2       3 UNK         0.4942 
     26 O          24.3432    0.6590   -5.4593 O.2       3 UNK        -0.5208 
     27 CA         23.0225   -0.0537   -3.5937 C.3       3 UNK         0.0250 
     28 CB         21.8805   -1.0439   -3.2823 C.3       3 UNK        -0.1990 
     29 N          24.0447   -0.1476   -2.5566 N.am      3 UNK        -0.4232 
     30 C          24.6783    0.9015   -2.0128 C.2       2 UNK         0.4993 
     31 O          24.3819    2.0734   -2.2494 O.2       2 UNK        -0.5286 
     32 CA         25.8295    0.6237   -1.0236 C.3       2 UNK         0.0209 
     33 CB         25.4597    1.1123    0.3879 C.3       2 UNK        -0.1931 
     34 N          26.2462   -0.7791   -0.9391 N.am      2 UNK        -0.4546 
     35 C          26.8547   -1.4695   -1.9120 C.2       1 UNK         0.5154 
     36 O          27.1482   -0.9963   -3.0133 O.2       1 UNK        -0.5181 
     37 C          28.1045   -0.4339   -6.7253 C.2       5 UNK         0.5014 
     38 O          28.8697   -0.0285   -7.6053 O.2       5 UNK        -0.5248 
     39 N          27.6382    0.3334   -5.7290 N.am      6 UNK        -0.4434 
     40 CA         27.9083    1.7658   -5.5942 C.3       6 UNK         0.0363 
     41 CB         27.3800    2.2764   -4.2484 C.3       6 UNK        -0.1936 
     42 C          27.3383    2.5937   -6.7561 C.2       6 UNK         0.5081 
     43 O          28.0001    3.5247   -7.2142 O.2       6 UNK        -0.5248 
     44 N          26.1413    2.2222   -7.2300 N.am      7 UNK        -0.4718 
     45 CA         25.5128    2.7996   -8.4187 C.3       7 UNK         0.0273 
     46 CB         24.0492    2.3377   -8.5024 C.3       7 UNK        -0.1935 
     47 C          26.2700    2.4600   -9.7153 C.2       7 UNK         0.5018 
     48 O          26.4076    3.3319  -10.5743 O.2       7 UNK        -0.5186 
     49 N          26.7372    1.2088   -9.8367 N.am      8 UNK        -0.4240 
     50 CA         27.4636    0.7025  -11.0008 C.3       8 UNK         0.0235 
     51 CB         27.5224   -0.8338  -10.9605 C.3       8 UNK        -0.2000 
     52 C          28.8737    1.2924  -11.1511 C.2       8 UNK         0.4941 
     53 O          29.2020    1.7671  -12.2401 O.2       8 UNK        -0.5273 
     54 N          29.6910    1.2271  -10.0890 N.am      9 UNK        -0.4262 
     55 CA         31.1081    1.6108  -10.1523 C.3       9 UNK         0.0264 
     56 CB         31.9268    0.4951  -10.8342 C.3       9 UNK        -0.1955 
     57 C          31.7486    1.9714   -8.8046 C.2       9 UNK         0.5031 
     58 O          32.7516    2.6877   -8.8138 O.2       9 UNK        -0.5390 
     59 N          31.2321    1.4427   -7.6833 N.am      10 UNK        -0.4204 
     60 CA         31.7552    1.6141   -6.3158 C.3       10 UNK         0.0237 
     61 CB         31.5774    3.0778   -5.8507 C.3       10 UNK        -0.1985 
     62 C          33.2114    1.1323   -6.1248 C.2       10 UNK         0.4970 
     63 O          33.8918    1.6164   -5.2188 O.2       10 UNK        -0.4914 
     64 N          33.6670    0.2070   -6.9832 N.am      11 UNK        -0.4285 
     65 CA         35.0660   -0.2415   -7.1130 C.3       11 UNK         0.1007 
     66 C          36.0554    0.8777   -7.5715 C.2       11 UNK         0.5703 
     67 N          35.5922    1.9779   -8.1564 N.am      11 UNK        -0.7361 
     68 O          37.2683    0.7367   -7.4322 O.2       11 UNK        -0.4986 
     69 C69        35.5734   -1.0453   -5.8771 C.3       12 UNK        -0.0947 
     70 S70        34.6811   -2.6201   -5.6596 S.3       12 UNK        -0.2240 
     71 C71        33.5268   -2.1993   -4.3150 C.3       12 UNK         0.0194 
     72 H72        25.8793   -5.8220   -4.1117 H         1 UNK         0.0906 
     73 H73        24.1654   -5.4196   -4.0360 H         1 UNK         0.0906 
     74 H74        25.2207   -4.5779   -5.1743 H         1 UNK         0.0906 
     75 H75        27.4127   -4.4467   -3.0555 H         1 UNK         0.3140 
     76 H76        26.5741   -3.2283   -0.7163 H         1 UNK         0.1085 
     77 H77        29.2655   -2.8592   -2.1098 H         1 UNK         0.0836 
     78 H78        28.9475   -2.5047   -0.4303 H         1 UNK         0.0836 
     79 H79        31.3485   -4.4238   -0.4070 H         1 UNK         0.0731 
     80 H80        31.1098   -6.0666   -0.9529 H         1 UNK         0.0731 
     81 H81        32.7191   -3.2807   -1.9476 H         1 UNK         0.1312 
     82 H82        31.9396   -3.4444   -6.1573 H         1 UNK         0.1406 
     83 H83        29.6803   -5.9002   -3.4699 H         1 UNK         0.1631 
     84 H84        29.8287   -6.3084   -6.0981 H         1 UNK         0.0717 
     85 H85        30.3144   -4.9301   -7.0564 H         1 UNK         0.0717 
     86 H86        28.3099   -2.4912   -4.7677 H         1 UNK         0.0934 
     87 H87        29.5302   -2.5574   -6.0054 H         1 UNK         0.0934 
     88 H88        27.8021   -2.2574   -7.7761 H         1 UNK         0.0739 
     89 H89        25.8904   -2.3912   -5.6284 H         1 UNK         0.3093 
     90 H90        23.2254   -0.9782   -7.5877 H         1 UNK         0.0818 
     91 H91        22.1672   -3.1655   -7.2486 H         1 UNK         0.0819 
     92 H92        23.4608   -3.3229   -8.4225 H         1 UNK         0.0819 
     93 H93        23.7022   -3.8915   -6.7789 H         1 UNK         0.0819 
     94 H94        22.9180   -2.1215   -5.0957 H         1 UNK         0.3041 
     95 H95        22.5853    0.9470   -3.6021 H         1 UNK         0.0784 
     96 H96        21.1082   -1.0097   -4.0522 H         1 UNK         0.0793 
     97 H97        22.2264   -2.0741   -3.2009 H         1 UNK         0.0793 
     98 H98        21.3971   -0.7900   -2.3387 H         1 UNK         0.0793 
     99 H99        24.3698   -1.0832   -2.3396 H         1 UNK         0.3024 
    100 H100       26.6863    1.2048   -1.3699 H         1 UNK         0.1171 
    101 H101       25.1902    2.1695    0.3795 H         1 UNK         0.0786 
    102 H102       26.2953    1.0015    1.0794 H         1 UNK         0.0786 
    103 H103       24.6095    0.5634    0.7948 H         1 UNK         0.0786 
    104 H104       26.0264   -1.2530   -0.0744 H         1 UNK         0.2977 
    105 H105       27.0600   -0.0885   -5.0110 H         1 UNK         0.3127 
    106 H106       28.9884    1.8928   -5.5954 H         1 UNK         0.0770 
    107 H107       26.2982    2.1657   -4.1783 H         1 UNK         0.0814 
    108 H108       27.6090    3.3344   -4.1147 H         1 UNK         0.0814 
    109 H109       27.8341    1.7379   -3.4172 H         1 UNK         0.0814 
    110 H110       25.6305    1.4902   -6.7434 H         1 UNK         0.2983 
    111 H111       25.5205    3.8861   -8.3069 H         1 UNK         0.0947 
    112 H112       23.5467    2.7873   -9.3597 H         1 UNK         0.0806 
    113 H113       23.4915    2.6248   -7.6107 H         1 UNK         0.0806 
    114 H114       23.9723    1.2555   -8.6092 H         1 UNK         0.0806 
    115 H115       26.5072    0.5307   -9.1154 H         1 UNK         0.3000 
    116 H116       26.8961    0.9861  -11.8900 H         1 UNK         0.0850 
    117 H117       28.0699   -1.2279  -11.8177 H         1 UNK         0.0810 
    118 H118       26.5229   -1.2679  -10.9893 H         1 UNK         0.0810 
    119 H119       28.0182   -1.1974  -10.0602 H         1 UNK         0.0810 
    120 H120       29.3356    0.8335   -9.2213 H         1 UNK         0.3040 
    121 H121       31.1885    2.5138  -10.7619 H         1 UNK         0.0766 
    122 H122       31.6100    0.3389  -11.8653 H         1 UNK         0.0812 
    123 H123       31.8277   -0.4544  -10.3072 H         1 UNK         0.0812 
    124 H124       32.9886    0.7452  -10.8634 H         1 UNK         0.0812 
    125 H125       30.4081    0.8466   -7.7500 H         1 UNK         0.3205 
    126 H126       31.1447    0.9771   -5.6747 H         1 UNK         0.0754 
    127 H127       31.7283    3.1676   -4.7743 H         1 UNK         0.0769 
    128 H128       30.5818    3.4600   -6.0723 H         1 UNK         0.0769 
    129 H129       32.2947    3.7419   -6.3346 H         1 UNK         0.0769 
    130 H130       33.0354   -0.1351   -7.6909 H         1 UNK         0.2981 
    131 H131       35.0613   -0.9327   -7.9564 H         1 UNK         0.0541 
    132 H132       34.5979    2.1251   -8.2976 H         1 UNK         0.3459 
    133 H133       36.2464    2.6823   -8.4570 H         1 UNK         0.3459 
    134 H134       35.5185   -0.4508   -4.9644 H         1 UNK         0.0612 
    135 H135       36.6252   -1.3096   -5.9962 H         1 UNK         0.0612 
    136 H136       34.1034   -2.0166   -3.4069 H         1 UNK         0.0624 
    137 H137       33.0121   -1.2690   -4.5511 H         1 UNK         0.0624 
@<TRIPOS>BOND
     1    1    2 1    
     2    1   72 1    
     3    1   73 1    
     4    1   74 1    
     5    2    3 2    
     6    2    4 am   BACKBONE|DICT|INTERRES
     7    4    5 1    
     8    4   75 1    
     9    5    6 1    
    10    5   35 1    
    11    5   76 1    
    12    6    7 1    
    13    6   77 1    
    14    6   78 1    
    15    7    8 1    
    16    8    9 1    
    17    8   79 1    
    18    8   80 1    
    19    9   10 ar   
    20    9   14 ar   
    21   10   11 ar   
    22   10   81 1    
    23   11   12 ar   
    24   11   71 1    
    25   12   13 ar   
    26   12   82 1    
    27   13   14 ar   
    28   13   15 1    
    29   14   83 1    
    30   15   16 1    
    31   15   84 1    
    32   15   85 1    
    33   16   17 1    
    34   17   18 1    
    35   17   86 1    
    36   17   87 1    
    37   18   19 1    
    38   18   37 1    
    39   18   88 1    
    40   19   20 am   BACKBONE|DICT|INTERRES
    41   19   89 1    
    42   20   21 2    
    43   20   22 1    
    44   22   23 1    
    45   22   24 1    
    46   22   90 1    
    47   23   91 1    
    48   23   92 1    
    49   23   93 1    
    50   24   25 am   BACKBONE|DICT|INTERRES
    51   24   94 1    
    52   25   26 2    
    53   25   27 1    
    54   27   28 1    
    55   27   29 1    
    56   27   95 1    
    57   28   96 1    
    58   28   97 1    
    59   28   98 1    
    60   29   30 am   BACKBONE|DICT|INTERRES
    61   29   99 1    
    62   30   31 2    
    63   30   32 1    
    64   32   33 1    
    65   32   34 1    
    66   32  100 1    
    67   33  101 1    
    68   33  102 1    
    69   33  103 1    
    70   34   35 am   BACKBONE|DICT|INTERRES
    71   34  104 1    
    72   35   36 2    
    73   37   38 2    
    74   37   39 am   BACKBONE|DICT|INTERRES
    75   39   40 1    
    76   39  105 1    
    77   40   41 1    
    78   40   42 1    
    79   40  106 1    
    80   41  107 1    
    81   41  108 1    
    82   41  109 1    
    83   42   43 2    
    84   42   44 am   BACKBONE|DICT|INTERRES
    85   44   45 1    
    86   44  110 1    
    87   45   46 1    
    88   45   47 1    
    89   45  111 1    
    90   46  112 1    
    91   46  113 1    
    92   46  114 1    
    93   47   48 2    
    94   47   49 am   BACKBONE|DICT|INTERRES
    95   49   50 1    
    96   49  115 1    
    97   50   51 1    
    98   50   52 1    
    99   50  116 1    
   100   51  117 1    
   101   51  118 1    
   102   51  119 1    
   103   52   53 2    
   104   52   54 am   BACKBONE|DICT|INTERRES
   105   54   55 1    
   106   54  120 1    
   107   55   56 1    
   108   55   57 1    
   109   55  121 1    
   110   56  122 1    
   111   56  123 1    
   112   56  124 1    
   113   57   58 2    
   114   57   59 am   BACKBONE|DICT|INTERRES
   115   59   60 1    
   116   59  125 1    
   117   60   61 1    
   118   60   62 1    
   119   60  126 1    
   120   61  127 1    
   121   61  128 1    
   122   61  129 1    
   123   62   63 2    
   124   62   64 am   BACKBONE|DICT|INTERRES
   125   64   65 1    
   126   64  130 1    
   127   65   66 1    
   128   65   69 1    
   129   65  131 1    
   130   66   67 am   BACKBONE|DICT|INTERRES
   131   66   68 2    
   132   67  132 1    
   133   67  133 1    
   134   69   70 1    
   135   69  134 1    
   136   69  135 1    
   137   70   71 1    
   138   71  136 1    
   139   71  137 1    
@<TRIPOS>SUBSTRUCTURE
     1 UNK         1 GROUP             0       ****    0 ROOT    
