@<TRIPOS>MOLECULE
3R137
137   139    1
SMALL
USER_CHARGES


@<TRIPOS>ATOM
      1 CA         24.5519   -4.2750   -8.0107 C.3       0 UNK        -0.2020 
      2 C          25.3049   -4.6681   -6.7485 C.2       0 UNK         0.4855 
      3 O          24.7936   -5.4548   -5.9520 O.2       0 UNK        -0.5197 
      4 N          26.5166   -4.1280   -6.5612 N.am      1 UNK        -0.4892 
      5 CA         27.3668   -4.3474   -5.3850 C.3       1 UNK         0.0835 
      6 C6         28.7853   -3.7538   -5.6022 C.3       12 UNK        -0.0855 
      7 S7         30.1221   -4.7712   -4.8911 S.3       12 UNK        -0.2931 
      8 C8         30.1921   -4.2566   -3.1400 C.3       12 UNK         0.0378 
      9 C9         30.3108   -2.7511   -2.9243 C.ar      12 UNK        -0.0802 
     10 C10        31.3064   -2.0044   -3.5632 C.ar      12 UNK        -0.0944 
     11 C11        31.4284   -0.6299   -3.3279 C.ar      12 UNK        -0.0787 
     12 C12        30.5428   -0.0026   -2.4472 C.ar      12 UNK        -0.0862 
     13 C13        29.5346   -0.7345   -1.8130 C.ar      12 UNK        -0.0733 
     14 C14        29.4324   -2.1078   -2.0476 C.ar      12 UNK        -0.0832 
     15 C15        28.5477   -0.0432   -0.8820 C.3       12 UNK         0.0240 
     16 S16        26.9402    0.2495   -1.6917 S.3       12 UNK        -0.2522 
     17 C17        27.4070    1.3939   -3.0366 C.3       12 UNK        -0.0967 
     18 CA         27.5152    0.6474   -4.3959 C.3       5 UNK         0.0660 
     19 N          26.2282    0.1148   -4.8466 N.am      5 UNK        -0.4015 
     20 C          25.2001    0.8035   -5.3625 C.2       4 UNK         0.4946 
     21 O          25.1962    2.0267   -5.5128 O.2       4 UNK        -0.5353 
     22 CA         23.9759   -0.0130   -5.8050 C.3       4 UNK         0.0277 
     23 CB         24.2118   -0.6077   -7.2025 C.3       4 UNK        -0.1981 
     24 N          23.6584   -1.0967   -4.8731 N.am      4 UNK        -0.4209 
     25 C          22.9521   -0.9506   -3.7423 C.2       3 UNK         0.4942 
     26 O          22.4616    0.1135   -3.3651 O.2       3 UNK        -0.5208 
     27 CA         22.7877   -2.2086   -2.8812 C.3       3 UNK         0.0250 
     28 CB         21.8310   -3.2169   -3.5498 C.3       3 UNK        -0.1990 
     29 N          24.1073   -2.7880   -2.6554 N.am      3 UNK        -0.4232 
     30 C          24.4509   -3.7736   -1.8252 C.2       2 UNK         0.4993 
     31 O          23.6512   -4.3958   -1.1237 O.2       2 UNK        -0.5286 
     32 CA         25.9601   -4.0992   -1.7740 C.3       2 UNK         0.0209 
     33 CB         26.3040   -5.1651   -0.7169 C.3       2 UNK        -0.1931 
     34 N          26.5253   -4.5165   -3.0664 N.am      2 UNK        -0.4546 
     35 C          26.7067   -3.7314   -4.1376 C.2       1 UNK         0.5154 
     36 O          26.3739   -2.5448   -4.1773 O.2       1 UNK        -0.5181 
     37 C          28.1936    1.4454   -5.5288 C.2       5 UNK         0.5014 
     38 O          28.4680    0.8681   -6.5833 O.2       5 UNK        -0.5248 
     39 N          28.4088    2.7531   -5.3249 N.am      6 UNK        -0.4434 
     40 CA         29.0172    3.6703   -6.2915 C.3       6 UNK         0.0363 
     41 CB         29.1924    5.0507   -5.6395 C.3       6 UNK        -0.1936 
     42 C          28.2515    3.7976   -7.6216 C.2       6 UNK         0.5081 
     43 O          28.8777    4.1076   -8.6345 O.2       6 UNK        -0.5248 
     44 N          26.9388    3.5142   -7.6305 N.am      7 UNK        -0.4718 
     45 CA         26.1208    3.4864   -8.8498 C.3       7 UNK         0.0273 
     46 CB         24.6296    3.4678   -8.4789 C.3       7 UNK        -0.1935 
     47 C          26.4672    2.3179   -9.7937 C.2       7 UNK         0.5018 
     48 O          26.1773    2.4113  -10.9866 O.2       7 UNK        -0.5186 
     49 N          27.1012    1.2625   -9.2617 N.am      8 UNK        -0.4240 
     50 CA         27.6608    0.1464  -10.0285 C.3       8 UNK         0.0235 
     51 CB         27.3303   -1.1684   -9.2988 C.3       8 UNK        -0.2000 
     52 C          29.1814    0.2916  -10.2349 C.2       8 UNK         0.4941 
     53 O          29.7946   -0.6230  -10.7885 O.2       8 UNK        -0.5273 
     54 N          29.7708    1.4088   -9.7766 N.am      9 UNK        -0.4262 
     55 CA         31.2033    1.7000   -9.6613 C.3       9 UNK         0.0264 
     56 CB         31.9080    1.7404  -11.0343 C.3       9 UNK        -0.1955 
     57 C          31.8853    0.7582   -8.6566 C.2       9 UNK         0.5031 
     58 O          32.1365    1.1754   -7.5260 O.2       9 UNK        -0.5390 
     59 N          32.1405   -0.4863   -9.0866 N.am      10 UNK        -0.4204 
     60 CA         32.6420   -1.6617   -8.3587 C.3       10 UNK         0.0237 
     61 CB         31.5921   -2.1507   -7.3440 C.3       10 UNK        -0.1985 
     62 C          34.0305   -1.5264   -7.7040 C.2       10 UNK         0.4970 
     63 O          34.8762   -2.3986   -7.9049 O.2       10 UNK        -0.4914 
     64 N          34.2375   -0.4566   -6.9347 N.am      11 UNK        -0.4285 
     65 CA         35.4684   -0.1440   -6.1946 C.3       11 UNK         0.1007 
     66 C          36.5339    0.6136   -7.0391 C.2       11 UNK         0.5703 
     67 N          36.2565    0.9971   -8.2802 N.am      11 UNK        -0.7361 
     68 O          37.6432    0.8454   -6.5636 O.2       11 UNK        -0.4986 
     69 C69        35.1480    0.6064   -4.8732 C.3       12 UNK        -0.0947 
     70 S70        34.1746   -0.4087   -3.7097 S.3       12 UNK        -0.2240 
     71 C71        32.4891    0.1869   -4.0522 C.3       12 UNK         0.0194 
     72 H72        25.1295   -3.5982   -8.6396 H         1 UNK         0.0906 
     73 H73        24.3176   -5.1627   -8.5977 H         1 UNK         0.0906 
     74 H74        23.6149   -3.7831   -7.7511 H         1 UNK         0.0906 
     75 H75        26.8791   -3.4808   -7.2452 H         1 UNK         0.3140 
     76 H76        27.4451   -5.4284   -5.2485 H         1 UNK         0.1085 
     77 H77        29.0033   -3.7141   -6.6701 H         1 UNK         0.0836 
     78 H78        28.8689   -2.7175   -5.2668 H         1 UNK         0.0836 
     79 H79        29.3158   -4.6535   -2.6270 H         1 UNK         0.0731 
     80 H80        31.0531   -4.7386   -2.6751 H         1 UNK         0.0731 
     81 H81        31.9903   -2.4940   -4.2429 H         1 UNK         0.1312 
     82 H82        30.6287    1.0600   -2.2663 H         1 UNK         0.1406 
     83 H83        28.6641   -2.6747   -1.5435 H         1 UNK         0.1631 
     84 H84        28.9515    0.9047   -0.5229 H         1 UNK         0.0717 
     85 H85        28.3889   -0.6602    0.0036 H         1 UNK         0.0717 
     86 H86        26.6577    2.1860   -3.0857 H         1 UNK         0.0934 
     87 H87        28.3474    1.8770   -2.7681 H         1 UNK         0.0934 
     88 H88        28.1562   -0.2231   -4.2490 H         1 UNK         0.0739 
     89 H89        26.1481   -0.8947   -4.7440 H         1 UNK         0.3093 
     90 H90        23.1240    0.6683   -5.8632 H         1 UNK         0.0818 
     91 H91        23.3195   -1.1114   -7.5745 H         1 UNK         0.0819 
     92 H92        24.4688    0.1673   -7.9251 H         1 UNK         0.0819 
     93 H93        25.0281   -1.3297   -7.1958 H         1 UNK         0.0819 
     94 H94        24.0169   -2.0123   -5.1019 H         1 UNK         0.3041 
     95 H95        22.3735   -1.9094   -1.9162 H         1 UNK         0.0784 
     96 H96        20.8787   -2.7461   -3.7977 H         1 UNK         0.0793 
     97 H97        22.2473   -3.6230   -4.4725 H         1 UNK         0.0793 
     98 H98        21.6097   -4.0553   -2.8895 H         1 UNK         0.0793 
     99 H99        24.8712   -2.3674   -3.1810 H         1 UNK         0.3024 
    100 H100       26.4497   -3.1709   -1.4736 H         1 UNK         0.1171 
    101 H101       25.9409   -4.8708    0.2689 H         1 UNK         0.0786 
    102 H102       27.3814   -5.3081   -0.6316 H         1 UNK         0.0786 
    103 H103       25.8538   -6.1295   -0.9558 H         1 UNK         0.0786 
    104 H104       26.7741   -5.4926   -3.1413 H         1 UNK         0.2977 
    105 H105       28.1057    3.1608   -4.4530 H         1 UNK         0.3127 
    106 H106       30.0078    3.2762   -6.5306 H         1 UNK         0.0770 
    107 H107       28.2348    5.4853   -5.3501 H         1 UNK         0.0814 
    108 H108       29.6717    5.7486   -6.3276 H         1 UNK         0.0814 
    109 H109       29.8209    4.9945   -4.7505 H         1 UNK         0.0814 
    110 H110       26.4856    3.2262   -6.7690 H         1 UNK         0.2983 
    111 H111       26.3153    4.4093   -9.4011 H         1 UNK         0.0947 
    112 H112       24.0064    3.5344   -9.3718 H         1 UNK         0.0806 
    113 H113       24.3681    4.3104   -7.8385 H         1 UNK         0.0806 
    114 H114       24.3503    2.5528   -7.9587 H         1 UNK         0.0806 
    115 H115       27.3343    1.2767   -8.2731 H         1 UNK         0.3000 
    116 H116       27.2095    0.1038  -11.0219 H         1 UNK         0.0850 
    117 H117       27.7505   -2.0283   -9.8222 H         1 UNK         0.0810 
    118 H118       27.7271   -1.1774   -8.2827 H         1 UNK         0.0810 
    119 H119       26.2537   -1.3235   -9.2477 H         1 UNK         0.0810 
    120 H120       29.1739    2.1123   -9.3584 H         1 UNK         0.3040 
    121 H121       31.2694    2.7039   -9.2386 H         1 UNK         0.0766 
    122 H122       31.8577    0.7910  -11.5670 H         1 UNK         0.0812 
    123 H123       32.9631    1.9922  -10.9203 H         1 UNK         0.0812 
    124 H124       31.4641    2.5007  -11.6769 H         1 UNK         0.0812 
    125 H125       31.8030   -0.6887  -10.0215 H         1 UNK         0.3205 
    126 H126       32.7418   -2.4433   -9.1136 H         1 UNK         0.0754 
    127 H127       31.9419   -3.0338   -6.8076 H         1 UNK         0.0769 
    128 H128       30.6652   -2.4226   -7.8481 H         1 UNK         0.0769 
    129 H129       31.3497   -1.3902   -6.6025 H         1 UNK         0.0769 
    130 H130       33.4925    0.2375   -6.8967 H         1 UNK         0.2981 
    131 H131       35.9428   -1.0883   -5.9210 H         1 UNK         0.0541 
    132 H132       35.3541    0.8050   -8.6825 H         1 UNK         0.3459 
    133 H133       36.9595    1.4806   -8.8166 H         1 UNK         0.3459 
    134 H134       34.6240    1.5422   -5.0765 H         1 UNK         0.0612 
    135 H135       36.0687    0.8811   -4.3553 H         1 UNK         0.0612 
    136 H136       32.4266    1.2407   -3.7765 H         1 UNK         0.0624 
    137 H137       32.2898    0.1374   -5.1201 H         1 UNK         0.0624 
@<TRIPOS>BOND
     1    1    2 1    
     2    1   72 1    
     3    1   73 1    
     4    1   74 1    
     5    2    3 2    
     6    2    4 am   BACKBONE|DICT|INTERRES
     7    4    5 1    
     8    4   75 1    
     9    5    6 1    
    10    5   35 1    
    11    5   76 1    
    12    6    7 1    
    13    6   77 1    
    14    6   78 1    
    15    7    8 1    
    16    8    9 1    
    17    8   79 1    
    18    8   80 1    
    19    9   10 ar   
    20    9   14 ar   
    21   10   11 ar   
    22   10   81 1    
    23   11   12 ar   
    24   11   71 1    
    25   12   13 ar   
    26   12   82 1    
    27   13   14 ar   
    28   13   15 1    
    29   14   83 1    
    30   15   16 1    
    31   15   84 1    
    32   15   85 1    
    33   16   17 1    
    34   17   18 1    
    35   17   86 1    
    36   17   87 1    
    37   18   19 1    
    38   18   37 1    
    39   18   88 1    
    40   19   20 am   BACKBONE|DICT|INTERRES
    41   19   89 1    
    42   20   21 2    
    43   20   22 1    
    44   22   23 1    
    45   22   24 1    
    46   22   90 1    
    47   23   91 1    
    48   23   92 1    
    49   23   93 1    
    50   24   25 am   BACKBONE|DICT|INTERRES
    51   24   94 1    
    52   25   26 2    
    53   25   27 1    
    54   27   28 1    
    55   27   29 1    
    56   27   95 1    
    57   28   96 1    
    58   28   97 1    
    59   28   98 1    
    60   29   30 am   BACKBONE|DICT|INTERRES
    61   29   99 1    
    62   30   31 2    
    63   30   32 1    
    64   32   33 1    
    65   32   34 1    
    66   32  100 1    
    67   33  101 1    
    68   33  102 1    
    69   33  103 1    
    70   34   35 am   BACKBONE|DICT|INTERRES
    71   34  104 1    
    72   35   36 2    
    73   37   38 2    
    74   37   39 am   BACKBONE|DICT|INTERRES
    75   39   40 1    
    76   39  105 1    
    77   40   41 1    
    78   40   42 1    
    79   40  106 1    
    80   41  107 1    
    81   41  108 1    
    82   41  109 1    
    83   42   43 2    
    84   42   44 am   BACKBONE|DICT|INTERRES
    85   44   45 1    
    86   44  110 1    
    87   45   46 1    
    88   45   47 1    
    89   45  111 1    
    90   46  112 1    
    91   46  113 1    
    92   46  114 1    
    93   47   48 2    
    94   47   49 am   BACKBONE|DICT|INTERRES
    95   49   50 1    
    96   49  115 1    
    97   50   51 1    
    98   50   52 1    
    99   50  116 1    
   100   51  117 1    
   101   51  118 1    
   102   51  119 1    
   103   52   53 2    
   104   52   54 am   BACKBONE|DICT|INTERRES
   105   54   55 1    
   106   54  120 1    
   107   55   56 1    
   108   55   57 1    
   109   55  121 1    
   110   56  122 1    
   111   56  123 1    
   112   56  124 1    
   113   57   58 2    
   114   57   59 am   BACKBONE|DICT|INTERRES
   115   59   60 1    
   116   59  125 1    
   117   60   61 1    
   118   60   62 1    
   119   60  126 1    
   120   61  127 1    
   121   61  128 1    
   122   61  129 1    
   123   62   63 2    
   124   62   64 am   BACKBONE|DICT|INTERRES
   125   64   65 1    
   126   64  130 1    
   127   65   66 1    
   128   65   69 1    
   129   65  131 1    
   130   66   67 am   BACKBONE|DICT|INTERRES
   131   66   68 2    
   132   67  132 1    
   133   67  133 1    
   134   69   70 1    
   135   69  134 1    
   136   69  135 1    
   137   70   71 1    
   138   71  136 1    
   139   71  137 1    
@<TRIPOS>SUBSTRUCTURE
     1 UNK         1 GROUP             0       ****    0 ROOT    
