@<TRIPOS>MOLECULE
3R137
137   139    1
SMALL
USER_CHARGES


@<TRIPOS>ATOM
      1 CA         28.2480   -6.5045    0.5563 C.3       0 UNK        -0.2020 
      2 C          27.3003   -5.3684    0.9105 C.2       0 UNK         0.4855 
      3 O          26.1950   -5.6184    1.3910 O.2       0 UNK        -0.5197 
      4 N          27.7243   -4.1199    0.6738 N.am      1 UNK        -0.4892 
      5 CA         26.9436   -2.9007    0.9292 C.3       1 UNK         0.0835 
      6 C6         27.8567   -1.6490    1.0381 C.3       12 UNK        -0.0855 
      7 S7         28.6765   -1.1639   -0.5223 S.3       12 UNK        -0.2931 
      8 C8         30.2645   -2.0495   -0.4174 C.3       12 UNK         0.0378 
      9 C9         30.7510   -2.4418   -1.8044 C.ar      12 UNK        -0.0802 
     10 C10        31.9236   -1.8917   -2.3283 C.ar      12 UNK        -0.0944 
     11 C11        32.3511   -2.2319   -3.6152 C.ar      12 UNK        -0.0787 
     12 C12        31.6103   -3.1456   -4.3727 C.ar      12 UNK        -0.0862 
     13 C13        30.4228   -3.6853   -3.8671 C.ar      12 UNK        -0.0733 
     14 C14        30.0094   -3.3410   -2.5774 C.ar      12 UNK        -0.0832 
     15 C15        29.5561   -4.6088   -4.7180 C.3       12 UNK         0.0240 
     16 S16        28.9269   -3.8375   -6.2538 S.3       12 UNK        -0.2522 
     17 C17        28.7392   -2.0777   -5.8119 C.3       12 UNK        -0.0967 
     18 CA         27.9110   -1.2995   -6.8613 C.3       5 UNK         0.0660 
     19 N          26.4680   -1.5193   -6.7232 N.am      5 UNK        -0.4015 
     20 C          25.5601   -1.1322   -7.6333 C.2       4 UNK         0.4946 
     21 O          25.8477   -0.5793   -8.6943 O.2       4 UNK        -0.5353 
     22 CA         24.0765   -1.3501   -7.2902 C.3       4 UNK         0.0277 
     23 CB         23.6411   -2.7757   -7.6647 C.3       4 UNK        -0.1981 
     24 N          23.7613   -1.0938   -5.8836 N.am      4 UNK        -0.4209 
     25 C          23.9553    0.0720   -5.2488 C.2       3 UNK         0.4942 
     26 O          24.3712    1.0894   -5.8010 O.2       3 UNK        -0.5208 
     27 CA         23.6849    0.1010   -3.7342 C.3       3 UNK         0.0250 
     28 CB         22.2848    0.6674   -3.4507 C.3       3 UNK        -0.1990 
     29 N          23.8274   -1.2039   -3.0767 N.am      3 UNK        -0.4232 
     30 C          24.9609   -1.9178   -3.0304 C.2       2 UNK         0.4993 
     31 O          26.0161   -1.5680   -3.5647 O.2       2 UNK        -0.5286 
     32 CA         24.8881   -3.2796   -2.3249 C.3       2 UNK         0.0209 
     33 CB         25.1492   -4.4188   -3.3258 C.3       2 UNK        -0.1931 
     34 N          25.8625   -3.3623   -1.2400 N.am      2 UNK        -0.4546 
     35 C          25.7829   -2.7017   -0.0753 C.2       1 UNK         0.5154 
     36 O          24.8367   -1.9730    0.2293 O.2       1 UNK        -0.5181 
     37 C          28.2641    0.1975   -6.8191 C.2       5 UNK         0.5014 
     38 O          29.0978    0.6375   -7.6128 O.2       5 UNK        -0.5248 
     39 N          27.6176    0.9505   -5.9180 N.am      6 UNK        -0.4434 
     40 CA         27.7784    2.3995   -5.7940 C.3       6 UNK         0.0363 
     41 CB         27.1353    2.8863   -4.4854 C.3       6 UNK        -0.1936 
     42 C          27.2060    3.1509   -7.0066 C.2       6 UNK         0.5081 
     43 O          27.8584    4.0640   -7.5113 O.2       6 UNK        -0.5248 
     44 N          26.0192    2.7337   -7.4707 N.am      7 UNK        -0.4718 
     45 CA         25.3382    3.2817   -8.6465 C.3       7 UNK         0.0273 
     46 CB         23.9184    2.6999   -8.7362 C.3       7 UNK        -0.1935 
     47 C          26.1074    3.0422   -9.9562 C.2       7 UNK         0.5018 
     48 O          26.2095    3.9596  -10.7716 O.2       7 UNK        -0.5186 
     49 N          26.6481    1.8276  -10.1283 N.am      8 UNK        -0.4240 
     50 CA         27.4712    1.4484  -11.2802 C.3       8 UNK         0.0235 
     51 CB         27.5148   -0.0855  -11.3819 C.3       8 UNK        -0.2000 
     52 C          28.9041    2.0084  -11.2285 C.2       8 UNK         0.4941 
     53 O          29.5699    2.0163  -12.2646 O.2       8 UNK        -0.5273 
     54 N          29.3615    2.4218  -10.0351 N.am      9 UNK        -0.4262 
     55 CA         30.7422    2.7813   -9.6852 C.3       9 UNK         0.0264 
     56 CB         31.1919    4.0654  -10.4133 C.3       9 UNK        -0.1955 
     57 C          31.6994    1.5906   -9.8939 C.2       9 UNK         0.5031 
     58 O          32.7721    1.7411  -10.4832 O.2       9 UNK        -0.5390 
     59 N          31.2699    0.4142   -9.4151 N.am      10 UNK        -0.4204 
     60 CA         31.9191   -0.8838   -9.6253 C.3       10 UNK         0.0237 
     61 CB         30.9744   -1.9963   -9.1424 C.3       10 UNK        -0.1985 
     62 C          33.2951   -1.0251   -8.9526 C.2       10 UNK         0.4970 
     63 O          34.0749   -1.8876   -9.3588 O.2       10 UNK        -0.4914 
     64 N          33.5633   -0.1945   -7.9392 N.am      11 UNK        -0.4285 
     65 CA         34.8146   -0.1763   -7.1682 C.3       11 UNK         0.1007 
     66 C          36.0388    0.4043   -7.9350 C.2       11 UNK         0.5703 
     67 N          35.8623    1.0484   -9.0839 N.am      11 UNK        -0.7361 
     68 O          37.1709    0.2620   -7.4791 O.2       11 UNK        -0.4986 
     69 C69        34.6415    0.5212   -5.7903 C.3       12 UNK        -0.0947 
     70 S70        33.1155    0.0491   -4.9096 S.3       12 UNK        -0.2240 
     71 C71        33.5782   -1.5618   -4.2082 C.3       12 UNK         0.0194 
     72 H72        27.7842   -7.1653   -0.1756 H         1 UNK         0.0906 
     73 H73        28.4789   -7.0907    1.4455 H         1 UNK         0.0906 
     74 H74        29.1862   -6.1407    0.1378 H         1 UNK         0.0906 
     75 H75        28.6464   -3.9725    0.2929 H         1 UNK         0.3140 
     76 H76        26.4669   -3.0277    1.9042 H         1 UNK         0.1085 
     77 H77        28.6120   -1.8018    1.8109 H         1 UNK         0.0836 
     78 H78        27.2675   -0.7958    1.3797 H         1 UNK         0.0836 
     79 H79        30.9908   -1.4118    0.0892 H         1 UNK         0.0731 
     80 H80        30.1718   -2.9482    0.1914 H         1 UNK         0.0731 
     81 H81        32.4907   -1.1759   -1.7488 H         1 UNK         0.1312 
     82 H82        31.9260   -3.3962   -5.3765 H         1 UNK         0.1406 
     83 H83        29.0877   -3.7457   -2.1846 H         1 UNK         0.1631 
     84 H84        28.6990   -4.9642   -4.1441 H         1 UNK         0.0717 
     85 H85        30.1321   -5.4967   -4.9814 H         1 UNK         0.0717 
     86 H86        28.3010   -1.9877   -4.8165 H         1 UNK         0.0934 
     87 H87        29.7464   -1.6626   -5.7358 H         1 UNK         0.0934 
     88 H88        28.1976   -1.6508   -7.8550 H         1 UNK         0.0739 
     89 H89        26.1550   -1.9188   -5.8481 H         1 UNK         0.3093 
     90 H90        23.4946   -0.6467   -7.8891 H         1 UNK         0.0818 
     91 H91        23.8500   -2.9825   -8.7154 H         1 UNK         0.0819 
     92 H92        24.1647   -3.5289   -7.0744 H         1 UNK         0.0819 
     93 H93        22.5702   -2.9161   -7.5166 H         1 UNK         0.0819 
     94 H94        23.4013   -1.8697   -5.3483 H         1 UNK         0.3041 
     95 H95        24.4224    0.7732   -3.2902 H         1 UNK         0.0784 
     96 H96        22.1620    1.6501   -3.9087 H         1 UNK         0.0793 
     97 H97        21.4991    0.0229   -3.8471 H         1 UNK         0.0793 
     98 H98        22.1141    0.7883   -2.3807 H         1 UNK         0.0793 
     99 H99        23.0067   -1.5613   -2.6082 H         1 UNK         0.3024 
    100 H100       23.8913   -3.4159   -1.8991 H         1 UNK         0.1171 
    101 H101       24.4201   -4.4016   -4.1369 H         1 UNK         0.0786 
    102 H102       26.1396   -4.3433   -3.7775 H         1 UNK         0.0786 
    103 H103       25.0736   -5.3945   -2.8452 H         1 UNK         0.0786 
    104 H104       26.6844   -3.9210   -1.4073 H         1 UNK         0.2977 
    105 H105       26.9328    0.5116   -5.3182 H         1 UNK         0.3127 
    106 H106       28.8483    2.6145   -5.7450 H         1 UNK         0.0770 
    107 H107       26.0610    2.7015   -4.4649 H         1 UNK         0.0814 
    108 H108       27.2822    3.9595   -4.3576 H         1 UNK         0.0814 
    109 H109       27.5771    2.3937   -3.6190 H         1 UNK         0.0814 
    110 H110       25.5229    2.0110   -6.9527 H         1 UNK         0.2983 
    111 H111       25.2558    4.3618   -8.5065 H         1 UNK         0.0947 
    112 H112       23.9342    1.6164   -8.8571 H         1 UNK         0.0806 
    113 H113       23.3778    3.1167   -9.5869 H         1 UNK         0.0806 
    114 H114       23.3399    2.9268   -7.8404 H         1 UNK         0.0806 
    115 H115       26.4598    1.0993   -9.4427 H         1 UNK         0.3000 
    116 H116       26.9999    1.8373  -12.1855 H         1 UNK         0.0850 
    117 H117       28.0892   -0.4062  -12.2521 H         1 UNK         0.0810 
    118 H118       26.5136   -0.5053  -11.4817 H         1 UNK         0.0810 
    119 H119       27.9783   -0.5326  -10.5014 H         1 UNK         0.0810 
    120 H120       28.7285    2.3488   -9.2487 H         1 UNK         0.3040 
    121 H121       30.7401    2.9916   -8.6144 H         1 UNK         0.0766 
    122 H122       31.2722    3.9171  -11.4904 H         1 UNK         0.0812 
    123 H123       32.1704    4.3905  -10.0581 H         1 UNK         0.0812 
    124 H124       30.4940    4.8841  -10.2377 H         1 UNK         0.0812 
    125 H125       30.4051    0.4145   -8.8746 H         1 UNK         0.3205 
    126 H126       32.0713   -1.0045  -10.6998 H         1 UNK         0.0754 
    127 H127       31.4008   -2.9827   -9.3301 H         1 UNK         0.0769 
    128 H128       30.0148   -1.9567   -9.6579 H         1 UNK         0.0769 
    129 H129       30.7861   -1.9231   -8.0709 H         1 UNK         0.0769 
    130 H130       32.8616    0.4749   -7.6626 H         1 UNK         0.2981 
    131 H131       35.0685   -1.2183   -6.9660 H         1 UNK         0.0541 
    132 H132       36.6635    1.4164   -9.5716 H         1 UNK         0.3459 
    133 H133       34.9361    1.1705   -9.4684 H         1 UNK         0.3459 
    134 H134       34.6118    1.6048   -5.9191 H         1 UNK         0.0612 
    135 H135       35.4980    0.3157   -5.1455 H         1 UNK         0.0612 
    136 H136       34.0145   -2.1918   -4.9845 H         1 UNK         0.0624 
    137 H137       34.3449   -1.4238   -3.4443 H         1 UNK         0.0624 
@<TRIPOS>BOND
     1    1    2 1    
     2    1   72 1    
     3    1   73 1    
     4    1   74 1    
     5    2    3 2    
     6    2    4 am   BACKBONE|DICT|INTERRES
     7    4    5 1    
     8    4   75 1    
     9    5    6 1    
    10    5   35 1    
    11    5   76 1    
    12    6    7 1    
    13    6   77 1    
    14    6   78 1    
    15    7    8 1    
    16    8    9 1    
    17    8   79 1    
    18    8   80 1    
    19    9   10 ar   
    20    9   14 ar   
    21   10   11 ar   
    22   10   81 1    
    23   11   12 ar   
    24   11   71 1    
    25   12   13 ar   
    26   12   82 1    
    27   13   14 ar   
    28   13   15 1    
    29   14   83 1    
    30   15   16 1    
    31   15   84 1    
    32   15   85 1    
    33   16   17 1    
    34   17   18 1    
    35   17   86 1    
    36   17   87 1    
    37   18   19 1    
    38   18   37 1    
    39   18   88 1    
    40   19   20 am   BACKBONE|DICT|INTERRES
    41   19   89 1    
    42   20   21 2    
    43   20   22 1    
    44   22   23 1    
    45   22   24 1    
    46   22   90 1    
    47   23   91 1    
    48   23   92 1    
    49   23   93 1    
    50   24   25 am   BACKBONE|DICT|INTERRES
    51   24   94 1    
    52   25   26 2    
    53   25   27 1    
    54   27   28 1    
    55   27   29 1    
    56   27   95 1    
    57   28   96 1    
    58   28   97 1    
    59   28   98 1    
    60   29   30 am   BACKBONE|DICT|INTERRES
    61   29   99 1    
    62   30   31 2    
    63   30   32 1    
    64   32   33 1    
    65   32   34 1    
    66   32  100 1    
    67   33  101 1    
    68   33  102 1    
    69   33  103 1    
    70   34   35 am   BACKBONE|DICT|INTERRES
    71   34  104 1    
    72   35   36 2    
    73   37   38 2    
    74   37   39 am   BACKBONE|DICT|INTERRES
    75   39   40 1    
    76   39  105 1    
    77   40   41 1    
    78   40   42 1    
    79   40  106 1    
    80   41  107 1    
    81   41  108 1    
    82   41  109 1    
    83   42   43 2    
    84   42   44 am   BACKBONE|DICT|INTERRES
    85   44   45 1    
    86   44  110 1    
    87   45   46 1    
    88   45   47 1    
    89   45  111 1    
    90   46  112 1    
    91   46  113 1    
    92   46  114 1    
    93   47   48 2    
    94   47   49 am   BACKBONE|DICT|INTERRES
    95   49   50 1    
    96   49  115 1    
    97   50   51 1    
    98   50   52 1    
    99   50  116 1    
   100   51  117 1    
   101   51  118 1    
   102   51  119 1    
   103   52   53 2    
   104   52   54 am   BACKBONE|DICT|INTERRES
   105   54   55 1    
   106   54  120 1    
   107   55   56 1    
   108   55   57 1    
   109   55  121 1    
   110   56  122 1    
   111   56  123 1    
   112   56  124 1    
   113   57   58 2    
   114   57   59 am   BACKBONE|DICT|INTERRES
   115   59   60 1    
   116   59  125 1    
   117   60   61 1    
   118   60   62 1    
   119   60  126 1    
   120   61  127 1    
   121   61  128 1    
   122   61  129 1    
   123   62   63 2    
   124   62   64 am   BACKBONE|DICT|INTERRES
   125   64   65 1    
   126   64  130 1    
   127   65   66 1    
   128   65   69 1    
   129   65  131 1    
   130   66   67 am   BACKBONE|DICT|INTERRES
   131   66   68 2    
   132   67  132 1    
   133   67  133 1    
   134   69   70 1    
   135   69  134 1    
   136   69  135 1    
   137   70   71 1    
   138   71  136 1    
   139   71  137 1    
@<TRIPOS>SUBSTRUCTURE
     1 UNK         1 GROUP             0       ****    0 ROOT    
