@<TRIPOS>MOLECULE
3R137
137   139    1
SMALL
USER_CHARGES


@<TRIPOS>ATOM
      1 CA         23.8859   -1.7023   -6.4277 C.3       0 UNK        -0.2020 
      2 C          24.6440   -2.2133   -5.2124 C.2       0 UNK         0.4855 
      3 O          25.3064   -1.4257   -4.5349 O.2       0 UNK        -0.5197 
      4 N          24.5219   -3.5191   -4.9312 N.am      1 UNK        -0.4892 
      5 CA         25.0867   -4.2351   -3.7739 C.3       1 UNK         0.0835 
      6 C6         26.6403   -4.2487   -3.7397 C.3       12 UNK        -0.0855 
      7 S7         27.3095   -5.1699   -5.1648 S.3       12 UNK        -0.2931 
      8 C8         28.8807   -5.8023   -4.5037 C.3       12 UNK         0.0378 
      9 C9         29.9593   -4.7304   -4.5066 C.ar      12 UNK        -0.0802 
     10 C10        30.6637   -4.4559   -5.6834 C.ar      12 UNK        -0.0944 
     11 C11        31.6781   -3.4952   -5.6954 C.ar      12 UNK        -0.0787 
     12 C12        31.9896   -2.8118   -4.5171 C.ar      12 UNK        -0.0862 
     13 C13        31.2787   -3.0608   -3.3396 C.ar      12 UNK        -0.0733 
     14 C14        30.2672   -4.0266   -3.3375 C.ar      12 UNK        -0.0832 
     15 C15        31.6187   -2.2898   -2.0710 C.3       12 UNK         0.0240 
     16 S16        30.2984   -1.1390   -1.5664 S.3       12 UNK        -0.2522 
     17 C17        30.1209   -0.0538   -3.0266 C.3       12 UNK        -0.0967 
     18 CA         28.6448   -0.0014   -3.5077 C.3       5 UNK         0.0660 
     19 N          27.7511    0.5968   -2.5066 N.am      5 UNK        -0.4015 
     20 C          27.7393    1.8664   -2.0712 C.2       4 UNK         0.4946 
     21 O          28.4876    2.7489   -2.4956 O.2       4 UNK        -0.5353 
     22 CA         26.7109    2.2079   -0.9690 C.3       4 UNK         0.0277 
     23 CB         26.7878    3.6797   -0.5183 C.3       4 UNK        -0.1981 
     24 N          25.3316    1.9092   -1.3680 N.am      4 UNK        -0.4209 
     25 C          24.8096    0.6802   -1.4556 C.2       3 UNK         0.4942 
     26 O          25.4502   -0.3373   -1.1784 O.2       3 UNK        -0.5208 
     27 CA         23.3596    0.5783   -1.9612 C.3       3 UNK         0.0250 
     28 CB         23.1936    1.2404   -3.3411 C.3       3 UNK        -0.1990 
     29 N          22.9704   -0.8249   -2.0761 N.am      3 UNK        -0.4232 
     30 C          22.4585   -1.5697   -1.0885 C.2       2 UNK         0.4993 
     31 O          22.1069   -1.1172    0.0023 O.2       2 UNK        -0.5286 
     32 CA         22.3049   -3.0766   -1.3631 C.3       2 UNK         0.0209 
     33 CB         20.8308   -3.4278   -1.6264 C.3       2 UNK        -0.1931 
     34 N          23.1152   -3.5409   -2.4951 N.am      2 UNK        -0.4546 
     35 C          24.4336   -3.7886   -2.4462 C.2       1 UNK         0.5154 
     36 O          25.1029   -3.6984   -1.4161 O.2       1 UNK        -0.5181 
     37 C          28.4709    0.6925   -4.8750 C.2       5 UNK         0.5014 
     38 O          29.4114    1.2963   -5.3915 O.2       5 UNK        -0.5248 
     39 N          27.2472    0.6265   -5.4168 N.am      6 UNK        -0.4434 
     40 CA         26.8313    1.3581   -6.6191 C.3       6 UNK         0.0363 
     41 CB         25.4813    2.0394   -6.3307 C.3       6 UNK        -0.1936 
     42 C          26.7431    0.4629   -7.8689 C.2       6 UNK         0.5081 
     43 O          26.1382    0.8761   -8.8587 O.2       6 UNK        -0.5248 
     44 N          27.3017   -0.7545   -7.8075 N.am      7 UNK        -0.4718 
     45 CA         27.1951   -1.7790   -8.8543 C.3       7 UNK         0.0273 
     46 CB         27.7202   -3.1135   -8.3064 C.3       7 UNK        -0.1935 
     47 C          27.8797   -1.4248  -10.1878 C.2       7 UNK         0.5018 
     48 O          27.4556   -1.9286  -11.2291 O.2       7 UNK        -0.5186 
     49 N          28.9027   -0.5668  -10.1428 N.am      8 UNK        -0.4240 
     50 CA         29.6327   -0.0386  -11.2908 C.3       8 UNK         0.0235 
     51 CB         30.6284   -1.0901  -11.8203 C.3       8 UNK        -0.2000 
     52 C          30.3683    1.2264  -10.8417 C.2       8 UNK         0.4941 
     53 O          30.5554    1.4255   -9.6396 O.2       8 UNK        -0.5273 
     54 N          30.8321    2.0339  -11.8052 N.am      9 UNK        -0.4262 
     55 CA         31.6474    3.2314  -11.5541 C.3       9 UNK         0.0264 
     56 CB         31.8794    3.9827  -12.8750 C.3       9 UNK        -0.1955 
     57 C          32.9905    2.9226  -10.8636 C.2       9 UNK         0.5031 
     58 O          33.4719    3.7368  -10.0748 O.2       9 UNK        -0.5390 
     59 N          33.5441    1.7336  -11.1405 N.am      10 UNK        -0.4204 
     60 CA         34.7464    1.1905  -10.5062 C.3       10 UNK         0.0237 
     61 CB         35.2292   -0.0246  -11.3159 C.3       10 UNK        -0.1985 
     62 C          34.5544    0.8032   -9.0267 C.2       10 UNK         0.4970 
     63 O          35.5534    0.6834   -8.3163 O.2       10 UNK        -0.4914 
     64 N          33.3039    0.6039   -8.5862 N.am      11 UNK        -0.4285 
     65 CA         32.9613    0.2616   -7.1975 C.3       11 UNK         0.1007 
     66 C          32.9986    1.4692   -6.2169 C.2       11 UNK         0.5703 
     67 N          33.0919    2.7093   -6.6858 N.am      11 UNK        -0.7361 
     68 O          32.9782    1.2717   -5.0044 O.2       11 UNK        -0.4986 
     69 C69        31.6130   -0.4986   -7.1028 C.3       12 UNK        -0.0947 
     70 S70        31.5797   -2.0436   -8.0720 S.3       12 UNK        -0.2240 
     71 C71        32.4509   -3.2082   -6.9750 C.3       12 UNK         0.0194 
     72 H72        23.2759   -0.8417   -6.1551 H         1 UNK         0.0906 
     73 H73        24.5801   -1.3948   -7.2061 H         1 UNK         0.0906 
     74 H74        23.2261   -2.4618   -6.8465 H         1 UNK         0.0906 
     75 H75        23.9813   -4.0992   -5.5585 H         1 UNK         0.3140 
     76 H76        24.7674   -5.2730   -3.8855 H         1 UNK         0.1085 
     77 H77        26.9986   -4.7282   -2.8273 H         1 UNK         0.0836 
     78 H78        27.0500   -3.2379   -3.7340 H         1 UNK         0.0836 
     79 H79        28.7330   -6.2075   -3.5015 H         1 UNK         0.0731 
     80 H80        29.2053   -6.6412   -5.1213 H         1 UNK         0.0731 
     81 H81        30.4216   -4.9913   -6.5915 H         1 UNK         0.1312 
     82 H82        32.7775   -2.0706   -4.5223 H         1 UNK         0.1406 
     83 H83        29.7207   -4.2263   -2.4256 H         1 UNK         0.1631 
     84 H84        32.5455   -1.7272   -2.1946 H         1 UNK         0.0717 
     85 H85        31.7980   -2.9968   -1.2599 H         1 UNK         0.0717 
     86 H86        30.4874    0.9426   -2.7742 H         1 UNK         0.0934 
     87 H87        30.7722   -0.4067   -3.8250 H         1 UNK         0.0934 
     88 H88        28.3068   -1.0295   -3.6501 H         1 UNK         0.0739 
     89 H89        27.0570   -0.0275   -2.1007 H         1 UNK         0.3093 
     90 H90        26.9611    1.5890   -0.1042 H         1 UNK         0.0818 
     91 H91        26.1003    3.8805    0.3035 H         1 UNK         0.0819 
     92 H92        27.7897    3.9288   -0.1658 H         1 UNK         0.0819 
     93 H93        26.5489    4.3649   -1.3326 H         1 UNK         0.0819 
     94 H94        24.7614    2.6994   -1.6330 H         1 UNK         0.3041 
     95 H95        22.7097    1.0846   -1.2443 H         1 UNK         0.0784 
     96 H96        22.1835    1.1027   -3.7274 H         1 UNK         0.0793 
     97 H97        23.3729    2.3150   -3.2977 H         1 UNK         0.0793 
     98 H98        23.8878    0.8217   -4.0685 H         1 UNK         0.0793 
     99 H99        23.3138   -1.3090   -2.8928 H         1 UNK         0.3024 
    100 H100       22.6286   -3.6025   -0.4615 H         1 UNK         0.1171 
    101 H101       20.4486   -2.9287   -2.5178 H         1 UNK         0.0786 
    102 H102       20.2016   -3.1241   -0.7884 H         1 UNK         0.0786 
    103 H103       20.6956   -4.5017   -1.7570 H         1 UNK         0.0786 
    104 H104       22.6404   -3.6543   -3.3793 H         1 UNK         0.2977 
    105 H105       26.5386    0.0478   -4.9695 H         1 UNK         0.3127 
    106 H106       27.5542    2.1438   -6.8484 H         1 UNK         0.0770 
    107 H107       24.6791    1.3098   -6.2228 H         1 UNK         0.0814 
    108 H108       25.2002    2.7107   -7.1431 H         1 UNK         0.0814 
    109 H109       25.5218    2.6370   -5.4198 H         1 UNK         0.0814 
    110 H110       27.7861   -1.0139   -6.9606 H         1 UNK         0.2983 
    111 H111       26.1342   -1.9063   -9.0800 H         1 UNK         0.0947 
    112 H112       27.6825   -3.8955   -9.0660 H         1 UNK         0.0806 
    113 H113       27.1130   -3.4512   -7.4681 H         1 UNK         0.0806 
    114 H114       28.7528   -3.0373   -7.9655 H         1 UNK         0.0806 
    115 H115       29.1807   -0.1649   -9.2553 H         1 UNK         0.3000 
    116 H116       28.9202    0.2310  -12.0733 H         1 UNK         0.0850 
    117 H117       31.3672   -1.3608  -11.0650 H         1 UNK         0.0810 
    118 H118       30.1193   -2.0036  -12.1275 H         1 UNK         0.0810 
    119 H119       31.1703   -0.7200  -12.6911 H         1 UNK         0.0810 
    120 H120       30.6363    1.8097  -12.7709 H         1 UNK         0.3040 
    121 H121       31.0808    3.8827  -10.8850 H         1 UNK         0.0766 
    122 H122       30.9367    4.2880  -13.3295 H         1 UNK         0.0812 
    123 H123       32.4209    3.3728  -13.5993 H         1 UNK         0.0812 
    124 H124       32.4647    4.8886  -12.7101 H         1 UNK         0.0812 
    125 H125       33.0773    1.1394  -11.8094 H         1 UNK         0.3205 
    126 H126       35.5225    1.9580  -10.5425 H         1 UNK         0.0754 
    127 H127       36.1471   -0.4362  -10.8936 H         1 UNK         0.0769 
    128 H128       35.4451    0.2463  -12.3497 H         1 UNK         0.0769 
    129 H129       34.4878   -0.8249  -11.3244 H         1 UNK         0.0769 
    130 H130       32.5154    0.7684   -9.1995 H         1 UNK         0.2981 
    131 H131       33.7312   -0.4203   -6.8326 H         1 UNK         0.0541 
    132 H132       33.1243    3.4788   -6.0366 H         1 UNK         0.3459 
    133 H133       33.1208    2.8832   -7.6793 H         1 UNK         0.3459 
    134 H134       30.7987    0.1339   -7.4546 H         1 UNK         0.0612 
    135 H135       31.3642   -0.7262   -6.0686 H         1 UNK         0.0612 
    136 H136       32.6120   -4.1404   -7.5181 H         1 UNK         0.0624 
    137 H137       33.4435   -2.8186   -6.7456 H         1 UNK         0.0624 
@<TRIPOS>BOND
     1    1    2 1    
     2    1   72 1    
     3    1   73 1    
     4    1   74 1    
     5    2    3 2    
     6    2    4 am   BACKBONE|DICT|INTERRES
     7    4    5 1    
     8    4   75 1    
     9    5    6 1    
    10    5   35 1    
    11    5   76 1    
    12    6    7 1    
    13    6   77 1    
    14    6   78 1    
    15    7    8 1    
    16    8    9 1    
    17    8   79 1    
    18    8   80 1    
    19    9   10 ar   
    20    9   14 ar   
    21   10   11 ar   
    22   10   81 1    
    23   11   12 ar   
    24   11   71 1    
    25   12   13 ar   
    26   12   82 1    
    27   13   14 ar   
    28   13   15 1    
    29   14   83 1    
    30   15   16 1    
    31   15   84 1    
    32   15   85 1    
    33   16   17 1    
    34   17   18 1    
    35   17   86 1    
    36   17   87 1    
    37   18   19 1    
    38   18   37 1    
    39   18   88 1    
    40   19   20 am   BACKBONE|DICT|INTERRES
    41   19   89 1    
    42   20   21 2    
    43   20   22 1    
    44   22   23 1    
    45   22   24 1    
    46   22   90 1    
    47   23   91 1    
    48   23   92 1    
    49   23   93 1    
    50   24   25 am   BACKBONE|DICT|INTERRES
    51   24   94 1    
    52   25   26 2    
    53   25   27 1    
    54   27   28 1    
    55   27   29 1    
    56   27   95 1    
    57   28   96 1    
    58   28   97 1    
    59   28   98 1    
    60   29   30 am   BACKBONE|DICT|INTERRES
    61   29   99 1    
    62   30   31 2    
    63   30   32 1    
    64   32   33 1    
    65   32   34 1    
    66   32  100 1    
    67   33  101 1    
    68   33  102 1    
    69   33  103 1    
    70   34   35 am   BACKBONE|DICT|INTERRES
    71   34  104 1    
    72   35   36 2    
    73   37   38 2    
    74   37   39 am   BACKBONE|DICT|INTERRES
    75   39   40 1    
    76   39  105 1    
    77   40   41 1    
    78   40   42 1    
    79   40  106 1    
    80   41  107 1    
    81   41  108 1    
    82   41  109 1    
    83   42   43 2    
    84   42   44 am   BACKBONE|DICT|INTERRES
    85   44   45 1    
    86   44  110 1    
    87   45   46 1    
    88   45   47 1    
    89   45  111 1    
    90   46  112 1    
    91   46  113 1    
    92   46  114 1    
    93   47   48 2    
    94   47   49 am   BACKBONE|DICT|INTERRES
    95   49   50 1    
    96   49  115 1    
    97   50   51 1    
    98   50   52 1    
    99   50  116 1    
   100   51  117 1    
   101   51  118 1    
   102   51  119 1    
   103   52   53 2    
   104   52   54 am   BACKBONE|DICT|INTERRES
   105   54   55 1    
   106   54  120 1    
   107   55   56 1    
   108   55   57 1    
   109   55  121 1    
   110   56  122 1    
   111   56  123 1    
   112   56  124 1    
   113   57   58 2    
   114   57   59 am   BACKBONE|DICT|INTERRES
   115   59   60 1    
   116   59  125 1    
   117   60   61 1    
   118   60   62 1    
   119   60  126 1    
   120   61  127 1    
   121   61  128 1    
   122   61  129 1    
   123   62   63 2    
   124   62   64 am   BACKBONE|DICT|INTERRES
   125   64   65 1    
   126   64  130 1    
   127   65   66 1    
   128   65   69 1    
   129   65  131 1    
   130   66   67 am   BACKBONE|DICT|INTERRES
   131   66   68 2    
   132   67  132 1    
   133   67  133 1    
   134   69   70 1    
   135   69  134 1    
   136   69  135 1    
   137   70   71 1    
   138   71  136 1    
   139   71  137 1    
@<TRIPOS>SUBSTRUCTURE
     1 UNK         1 GROUP             0       ****    0 ROOT    
