@<TRIPOS>MOLECULE
3R137
137   139    1
SMALL
USER_CHARGES


@<TRIPOS>ATOM
      1 CA         29.6528   -0.6367   -2.4355 C.3       0 UNK        -0.2020 
      2 C          29.8455   -0.8997   -0.9434 C.2       0 UNK         0.4855 
      3 O          30.5741   -0.1558   -0.2901 O.2       0 UNK        -0.5197 
      4 N          29.2361   -1.9407   -0.3587 N.am      1 UNK        -0.4892 
      5 CA         28.2823   -2.8653   -0.9805 C.3       1 UNK         0.0835 
      6 C6         28.1656   -4.2028   -0.1944 C.3       12 UNK        -0.0855 
      7 S7         29.5817   -5.3710   -0.1241 S.3       12 UNK        -0.2931 
      8 C8         31.0559   -4.5861   -0.8727 C.3       12 UNK         0.0378 
      9 C9         31.0636   -4.4265   -2.3945 C.ar      12 UNK        -0.0802 
     10 C10        32.1468   -3.7581   -2.9743 C.ar      12 UNK        -0.0944 
     11 C11        32.2064   -3.5316   -4.3523 C.ar      12 UNK        -0.0787 
     12 C12        31.1430   -3.9599   -5.1547 C.ar      12 UNK        -0.0862 
     13 C13        30.0547   -4.6333   -4.5952 C.ar      12 UNK        -0.0733 
     14 C14        30.0377   -4.8982   -3.2237 C.ar      12 UNK        -0.0832 
     15 C15        28.8703   -5.0258   -5.4666 C.3       12 UNK         0.0240 
     16 S16        27.3698   -4.0852   -5.0301 S.3       12 UNK        -0.2522 
     17 C17        27.8987   -2.3518   -5.2690 C.3       12 UNK        -0.0967 
     18 CA         27.2327   -1.6628   -6.4823 C.3       5 UNK         0.0660 
     19 N          25.7724   -1.7613   -6.4663 N.am      5 UNK        -0.4015 
     20 C          24.9833   -1.5689   -7.5320 C.2       4 UNK         0.4946 
     21 O          25.4086   -1.3451   -8.6648 O.2       4 UNK        -0.5353 
     22 CA         23.4626   -1.6061   -7.2920 C.3       4 UNK         0.0277 
     23 CB         22.9297   -3.0384   -7.4550 C.3       4 UNK        -0.1981 
     24 N          23.0755   -1.0885   -5.9763 N.am      4 UNK        -0.4209 
     25 C          23.2253    0.1865   -5.5868 C.2       3 UNK         0.4942 
     26 O          23.6307    1.0809   -6.3264 O.2       3 UNK        -0.5208 
     27 CA         22.9399    0.5040   -4.1066 C.3       3 UNK         0.0250 
     28 CB         21.4615    0.8740   -3.9099 C.3       3 UNK        -0.1990 
     29 N          23.3020   -0.5888   -3.1947 N.am      3 UNK        -0.4232 
     30 C          24.5334   -1.1056   -3.0764 C.2       2 UNK         0.4993 
     31 O          25.5098   -0.6805   -3.6990 O.2       2 UNK        -0.5286 
     32 CA         24.6621   -2.3555   -2.1913 C.3       2 UNK         0.0209 
     33 CB         23.9207   -3.5440   -2.8314 C.3       2 UNK        -0.1931 
     34 N          26.0570   -2.7517   -1.9889 N.am      2 UNK        -0.4546 
     35 C          26.8837   -2.2151   -1.0836 C.2       1 UNK         0.5154 
     36 O          26.5615   -1.3014   -0.3193 O.2       1 UNK        -0.5181 
     37 C          27.6672   -0.1882   -6.5676 C.2       5 UNK         0.5014 
     38 O          28.5815    0.1316   -7.3268 O.2       5 UNK        -0.5248 
     39 N          26.9852    0.6928   -5.8195 N.am      6 UNK        -0.4434 
     40 CA         27.1689    2.1462   -5.8763 C.3       6 UNK         0.0363 
     41 CB         26.3483    2.8223   -4.7681 C.3       6 UNK        -0.1936 
     42 C          26.8262    2.7325   -7.2580 C.2       6 UNK         0.5081 
     43 O          27.5729    3.5727   -7.7585 O.2       6 UNK        -0.5248 
     44 N          25.7499    2.2336   -7.8842 N.am      7 UNK        -0.4718 
     45 CA         25.3637    2.5439   -9.2666 C.3       7 UNK         0.0273 
     46 CB         23.9794    1.9456   -9.5603 C.3       7 UNK        -0.1935 
     47 C          26.3917    2.0696  -10.3123 C.2       7 UNK         0.5018 
     48 O          26.5150    2.6986  -11.3630 O.2       7 UNK        -0.5186 
     49 N          27.1452    1.0097   -9.9874 N.am      8 UNK        -0.4240 
     50 CA         28.2980    0.5132  -10.7449 C.3       8 UNK         0.0235 
     51 CB         28.3869   -1.0150  -10.5785 C.3       8 UNK        -0.2000 
     52 C          29.6178    1.2129  -10.3483 C.2       8 UNK         0.4941 
     53 O          30.6910    0.6817  -10.6374 O.2       8 UNK        -0.5273 
     54 N          29.5238    2.3832   -9.6977 N.am      9 UNK        -0.4262 
     55 CA         30.6070    3.2740   -9.2692 C.3       9 UNK         0.0264 
     56 CB         31.4441    3.7609  -10.4725 C.3       9 UNK        -0.1955 
     57 C          31.4738    2.7183   -8.1245 C.2       9 UNK         0.5031 
     58 O          32.6110    3.1681   -7.9680 O.2       9 UNK        -0.5390 
     59 N          30.9346    1.7737   -7.3349 N.am      10 UNK        -0.4204 
     60 CA         31.5351    1.1791   -6.1316 C.3       10 UNK         0.0237 
     61 CB         31.4925    2.1858   -4.9624 C.3       10 UNK        -0.1985 
     62 C          32.9436    0.6014   -6.3726 C.2       10 UNK         0.4970 
     63 O          33.8433    0.8077   -5.5562 O.2       10 UNK        -0.4914 
     64 N          33.1010   -0.0973   -7.5045 N.am      11 UNK        -0.4285 
     65 CA         34.3586   -0.6847   -7.9995 C.3       11 UNK         0.1007 
     66 C          35.4293    0.3562   -8.4539 C.2       11 UNK         0.5703 
     67 N          35.1198    1.6443   -8.5582 N.am      11 UNK        -0.7361 
     68 O          36.5611   -0.0149   -8.7570 O.2       11 UNK        -0.4986 
     69 C69        34.9532   -1.7748   -7.0557 C.3       12 UNK        -0.0947 
     70 S70        33.7746   -3.1148   -6.6733 S.3       12 UNK        -0.2240 
     71 C71        33.3964   -2.7612   -4.9213 C.3       12 UNK         0.0194 
     72 H72        30.2662    0.2055   -2.7543 H         1 UNK         0.0906 
     73 H73        29.9522   -1.5004   -3.0284 H         1 UNK         0.0906 
     74 H74        28.6152   -0.3879   -2.6558 H         1 UNK         0.0906 
     75 H75        29.3609   -2.0671    0.6353 H         1 UNK         0.3140 
     76 H76        28.6043   -3.0818   -1.9966 H         1 UNK         0.1085 
     77 H77        27.8802   -3.9913    0.8383 H         1 UNK         0.0836 
     78 H78        27.3404   -4.7953   -0.5956 H         1 UNK         0.0836 
     79 H79        31.2408   -3.6251   -0.3942 H         1 UNK         0.0731 
     80 H80        31.9120   -5.2087   -0.6091 H         1 UNK         0.0731 
     81 H81        32.9469   -3.3966   -2.3421 H         1 UNK         0.1312 
     82 H82        31.1443   -3.7510   -6.2152 H         1 UNK         0.1406 
     83 H83        29.1905   -5.4252   -2.8088 H         1 UNK         0.1631 
     84 H84        29.0913   -4.8703   -6.5238 H         1 UNK         0.0717 
     85 H85        28.6704   -6.0913   -5.3464 H         1 UNK         0.0717 
     86 H86        27.6732   -1.8172   -4.3476 H         1 UNK         0.0934 
     87 H87        28.9820   -2.2998   -5.3751 H         1 UNK         0.0934 
     88 H88        27.5914   -2.1630   -7.3846 H         1 UNK         0.0739 
     89 H89        25.3522   -1.8888   -5.5570 H         1 UNK         0.3093 
     90 H90        22.9933   -0.9770   -8.0515 H         1 UNK         0.0818 
     91 H91        21.8436   -3.0709   -7.3667 H         1 UNK         0.0819 
     92 H92        23.1846   -3.4384   -8.4376 H         1 UNK         0.0819 
     93 H93        23.3492   -3.7154   -6.7095 H         1 UNK         0.0819 
     94 H94        22.7141   -1.7545   -5.3096 H         1 UNK         0.3041 
     95 H95        23.5467    1.3699   -3.8352 H         1 UNK         0.0784 
     96 H96        21.1766    1.6995   -4.5641 H         1 UNK         0.0793 
     97 H97        20.7996    0.0367   -4.1349 H         1 UNK         0.0793 
     98 H98        21.2648    1.1932   -2.8862 H         1 UNK         0.0793 
     99 H99        22.5499   -0.9905   -2.6528 H         1 UNK         0.3024 
    100 H100       24.2109   -2.1330   -1.2212 H         1 UNK         0.1171 
    101 H101       24.0076   -4.4400   -2.2161 H         1 UNK         0.0786 
    102 H102       22.8550   -3.3410   -2.9424 H         1 UNK         0.0786 
    103 H103       24.3136   -3.7823   -3.8209 H         1 UNK         0.0786 
    104 H104       26.4041   -3.4715   -2.6073 H         1 UNK         0.2977 
    105 H105       26.2891    0.3377   -5.1687 H         1 UNK         0.3127 
    106 H106       28.2243    2.3495   -5.6862 H         1 UNK         0.0770 
    107 H107       25.2772    2.6946   -4.9220 H         1 UNK         0.0814 
    108 H108       26.5456    3.8946   -4.7401 H         1 UNK         0.0814 
    109 H109       26.5974    2.4196   -3.7861 H         1 UNK         0.0814 
    110 H110       25.1318    1.6124   -7.3667 H         1 UNK         0.2983 
    111 H111       25.2913    3.6303   -9.3522 H         1 UNK         0.0947 
    112 H112       23.6484    2.2028  -10.5674 H         1 UNK         0.0806 
    113 H113       23.2282    2.3223   -8.8658 H         1 UNK         0.0806 
    114 H114       23.9874    0.8580   -9.4876 H         1 UNK         0.0806 
    115 H115       26.9639    0.5494   -9.1046 H         1 UNK         0.3000 
    116 H116       28.1394    0.7216  -11.8049 H         1 UNK         0.0850 
    117 H117       27.4463   -1.4986  -10.8432 H         1 UNK         0.0810 
    118 H118       28.6302   -1.2974   -9.5545 H         1 UNK         0.0810 
    119 H119       29.1591   -1.4360  -11.2235 H         1 UNK         0.0810 
    120 H120       28.5980    2.7032   -9.4372 H         1 UNK         0.3040 
    121 H121       30.1095    4.1502   -8.8511 H         1 UNK         0.0766 
    122 H122       30.8091    4.1584  -11.2642 H         1 UNK         0.0812 
    123 H123       32.0499    2.9596  -10.8963 H         1 UNK         0.0812 
    124 H124       32.1268    4.5586  -10.1772 H         1 UNK         0.0812 
    125 H125       30.0135    1.4107   -7.5717 H         1 UNK         0.3205 
    126 H126       30.9062    0.3307   -5.8576 H         1 UNK         0.0754 
    127 H127       32.1132    3.0600   -5.1621 H         1 UNK         0.0769 
    128 H128       31.8560    1.7327   -4.0393 H         1 UNK         0.0769 
    129 H129       30.4773    2.5324   -4.7721 H         1 UNK         0.0769 
    130 H130       32.3105   -0.1805   -8.1275 H         1 UNK         0.2981 
    131 H131       34.0771   -1.1909   -8.9234 H         1 UNK         0.0541 
    132 H132       35.8272    2.2912   -8.8671 H         1 UNK         0.3459 
    133 H133       34.2012    1.9924   -8.3039 H         1 UNK         0.3459 
    134 H134       35.3223   -1.3300   -6.1305 H         1 UNK         0.0612 
    135 H135       35.8197   -2.2452   -7.5234 H         1 UNK         0.0612 
    136 H136       33.1914   -1.7002   -4.7957 H         1 UNK         0.0624 
    137 H137       34.2916   -2.9751   -4.3353 H         1 UNK         0.0624 
@<TRIPOS>BOND
     1    1    2 1    
     2    1   72 1    
     3    1   73 1    
     4    1   74 1    
     5    2    3 2    
     6    2    4 am   BACKBONE|DICT|INTERRES
     7    4    5 1    
     8    4   75 1    
     9    5    6 1    
    10    5   35 1    
    11    5   76 1    
    12    6    7 1    
    13    6   77 1    
    14    6   78 1    
    15    7    8 1    
    16    8    9 1    
    17    8   79 1    
    18    8   80 1    
    19    9   10 ar   
    20    9   14 ar   
    21   10   11 ar   
    22   10   81 1    
    23   11   12 ar   
    24   11   71 1    
    25   12   13 ar   
    26   12   82 1    
    27   13   14 ar   
    28   13   15 1    
    29   14   83 1    
    30   15   16 1    
    31   15   84 1    
    32   15   85 1    
    33   16   17 1    
    34   17   18 1    
    35   17   86 1    
    36   17   87 1    
    37   18   19 1    
    38   18   37 1    
    39   18   88 1    
    40   19   20 am   BACKBONE|DICT|INTERRES
    41   19   89 1    
    42   20   21 2    
    43   20   22 1    
    44   22   23 1    
    45   22   24 1    
    46   22   90 1    
    47   23   91 1    
    48   23   92 1    
    49   23   93 1    
    50   24   25 am   BACKBONE|DICT|INTERRES
    51   24   94 1    
    52   25   26 2    
    53   25   27 1    
    54   27   28 1    
    55   27   29 1    
    56   27   95 1    
    57   28   96 1    
    58   28   97 1    
    59   28   98 1    
    60   29   30 am   BACKBONE|DICT|INTERRES
    61   29   99 1    
    62   30   31 2    
    63   30   32 1    
    64   32   33 1    
    65   32   34 1    
    66   32  100 1    
    67   33  101 1    
    68   33  102 1    
    69   33  103 1    
    70   34   35 am   BACKBONE|DICT|INTERRES
    71   34  104 1    
    72   35   36 2    
    73   37   38 2    
    74   37   39 am   BACKBONE|DICT|INTERRES
    75   39   40 1    
    76   39  105 1    
    77   40   41 1    
    78   40   42 1    
    79   40  106 1    
    80   41  107 1    
    81   41  108 1    
    82   41  109 1    
    83   42   43 2    
    84   42   44 am   BACKBONE|DICT|INTERRES
    85   44   45 1    
    86   44  110 1    
    87   45   46 1    
    88   45   47 1    
    89   45  111 1    
    90   46  112 1    
    91   46  113 1    
    92   46  114 1    
    93   47   48 2    
    94   47   49 am   BACKBONE|DICT|INTERRES
    95   49   50 1    
    96   49  115 1    
    97   50   51 1    
    98   50   52 1    
    99   50  116 1    
   100   51  117 1    
   101   51  118 1    
   102   51  119 1    
   103   52   53 2    
   104   52   54 am   BACKBONE|DICT|INTERRES
   105   54   55 1    
   106   54  120 1    
   107   55   56 1    
   108   55   57 1    
   109   55  121 1    
   110   56  122 1    
   111   56  123 1    
   112   56  124 1    
   113   57   58 2    
   114   57   59 am   BACKBONE|DICT|INTERRES
   115   59   60 1    
   116   59  125 1    
   117   60   61 1    
   118   60   62 1    
   119   60  126 1    
   120   61  127 1    
   121   61  128 1    
   122   61  129 1    
   123   62   63 2    
   124   62   64 am   BACKBONE|DICT|INTERRES
   125   64   65 1    
   126   64  130 1    
   127   65   66 1    
   128   65   69 1    
   129   65  131 1    
   130   66   67 am   BACKBONE|DICT|INTERRES
   131   66   68 2    
   132   67  132 1    
   133   67  133 1    
   134   69   70 1    
   135   69  134 1    
   136   69  135 1    
   137   70   71 1    
   138   71  136 1    
   139   71  137 1    
@<TRIPOS>SUBSTRUCTURE
     1 UNK         1 GROUP             0       ****    0 ROOT    
