@<TRIPOS>MOLECULE
3R137
137   139    1
SMALL
USER_CHARGES


@<TRIPOS>ATOM
      1 CA         25.3735   -6.5296   -5.1291 C.3       0 UNK        -0.2020 
      2 C          25.6631   -6.2394   -3.6642 C.2       0 UNK         0.4855 
      3 O          24.9664   -6.7514   -2.7883 O.2       0 UNK        -0.5197 
      4 N          26.6847   -5.4166   -3.3927 N.am      1 UNK        -0.4892 
      5 CA         27.1363   -5.0402   -2.0435 C.3       1 UNK         0.0835 
      6 C6         28.5232   -4.3508   -2.0760 C.3       12 UNK        -0.0855 
      7 S7         29.7963   -5.2882   -2.9923 S.3       12 UNK        -0.2931 
      8 C8         31.3112   -4.3650   -2.5668 C.3       12 UNK         0.0378 
      9 C9         31.2221   -2.9043   -2.9861 C.ar      12 UNK        -0.0802 
     10 C10        31.5238   -2.5197   -4.2967 C.ar      12 UNK        -0.0944 
     11 C11        31.3952   -1.1836   -4.6908 C.ar      12 UNK        -0.0787 
     12 C12        30.9574   -0.2345   -3.7616 C.ar      12 UNK        -0.0862 
     13 C13        30.6430   -0.6081   -2.4530 C.ar      12 UNK        -0.0733 
     14 C14        30.8012   -1.9403   -2.0656 C.ar      12 UNK        -0.0832 
     15 C15        30.0960    0.4062   -1.4605 C.3       12 UNK         0.0240 
     16 S16        28.2907    0.2208   -1.2887 S.3       12 UNK        -0.2522 
     17 C17        27.6540    1.7055   -2.1391 C.3       12 UNK        -0.0967 
     18 CA         27.8119    1.6739   -3.6794 C.3       5 UNK         0.0660 
     19 N          27.2355    0.4732   -4.2920 N.am      5 UNK        -0.4015 
     20 C          27.5242    0.0534   -5.5339 C.2       4 UNK         0.4946 
     21 O          28.3124    0.6270   -6.2825 O.2       4 UNK        -0.5353 
     22 CA         26.7803   -1.1813   -6.0712 C.3       4 UNK         0.0277 
     23 CB         27.5897   -2.4538   -5.7726 C.3       4 UNK        -0.1981 
     24 N          25.4183   -1.3300   -5.5549 N.am      4 UNK        -0.4209 
     25 C          24.4530   -0.3995   -5.6039 C.2       3 UNK         0.4942 
     26 O          24.5735    0.6820   -6.1808 O.2       3 UNK        -0.5208 
     27 CA         23.1674   -0.6941   -4.8087 C.3       3 UNK         0.0250 
     28 CB         22.0909   -1.2828   -5.7336 C.3       3 UNK        -0.1990 
     29 N          23.3633   -1.5850   -3.6539 N.am      3 UNK        -0.4232 
     30 C          24.2007   -1.3573   -2.6288 C.2       2 UNK         0.4993 
     31 O          24.9310   -0.3692   -2.5495 O.2       2 UNK        -0.5286 
     32 CA         24.3077   -2.4543   -1.5659 C.3       2 UNK         0.0209 
     33 CB         22.9619   -3.1282   -1.2297 C.3       2 UNK        -0.1931 
     34 N          25.2655   -3.4445   -2.0483 N.am      2 UNK        -0.4546 
     35 C          26.1312   -4.1330   -1.2952 C.2       1 UNK         0.5154 
     36 O          26.1756   -4.0613   -0.0661 O.2       1 UNK        -0.5181 
     37 C          27.2768    2.9769   -4.3069 C.2       5 UNK         0.5014 
     38 O          27.9967    3.9768   -4.3036 O.2       5 UNK        -0.5248 
     39 N          26.0440    2.9545   -4.8344 N.am      6 UNK        -0.4434 
     40 CA         25.4431    4.0781   -5.5538 C.3       6 UNK         0.0363 
     41 CB         23.9133    4.0308   -5.4042 C.3       6 UNK        -0.1936 
     42 C          25.8483    4.0652   -7.0352 C.2       6 UNK         0.5081 
     43 O          26.1539    5.1205   -7.5904 O.2       6 UNK        -0.5248 
     44 N          25.8439    2.8730   -7.6473 N.am      7 UNK        -0.4718 
     45 CA         26.1722    2.6629   -9.0596 C.3       7 UNK         0.0273 
     46 CB         25.6280    1.2911   -9.4912 C.3       7 UNK        -0.1935 
     47 C          27.6750    2.7627   -9.3808 C.2       7 UNK         0.5018 
     48 O          28.0169    3.0126  -10.5371 O.2       7 UNK        -0.5186 
     49 N          28.5325    2.5236   -8.3761 N.am      8 UNK        -0.4240 
     50 CA         29.9893    2.3406   -8.4631 C.3       8 UNK         0.0235 
     51 CB         30.6932    3.6239   -8.9496 C.3       8 UNK        -0.2000 
     52 C          30.3713    1.0866   -9.2794 C.2       8 UNK         0.4941 
     53 O          31.4049    1.0723   -9.9560 O.2       8 UNK        -0.5273 
     54 N          29.5107    0.0599   -9.2077 N.am      9 UNK        -0.4262 
     55 CA         29.5576   -1.1702   -9.9971 C.3       9 UNK         0.0264 
     56 CB         28.2752   -1.9824   -9.7463 C.3       9 UNK        -0.1955 
     57 C          30.8158   -1.9977   -9.6965 C.2       9 UNK         0.5031 
     58 O          30.8684   -2.6691   -8.6656 O.2       9 UNK        -0.5390 
     59 N          31.7982   -1.9120  -10.6030 N.am      10 UNK        -0.4204 
     60 CA         33.1332   -2.5163  -10.5280 C.3       10 UNK         0.0237 
     61 CB         33.0579   -4.0583  -10.4643 C.3       10 UNK        -0.1985 
     62 C          34.0289   -1.9066   -9.4291 C.2       10 UNK         0.4970 
     63 O          34.9333   -2.5885   -8.9426 O.2       10 UNK        -0.4914 
     64 N          33.8033   -0.6302   -9.0910 N.am      11 UNK        -0.4285 
     65 CA         34.6757    0.1618   -8.2080 C.3       11 UNK         0.1007 
     66 C          34.8699    1.6343   -8.6686 C.2       11 UNK         0.5703 
     67 N          34.0697    2.1678   -9.5851 N.am      11 UNK        -0.7361 
     68 O          35.7953    2.2995   -8.2087 O.2       11 UNK        -0.4986 
     69 C69        34.2985    0.0342   -6.7061 C.3       12 UNK        -0.0947 
     70 S70        32.6561    0.7219   -6.3120 S.3       12 UNK        -0.2240 
     71 C71        31.6457   -0.7845   -6.1394 C.3       12 UNK         0.0194 
     72 H72        26.0617   -6.0081   -5.7937 H         1 UNK         0.0906 
     73 H73        25.4606   -7.5981   -5.3233 H         1 UNK         0.0906 
     74 H74        24.3595   -6.2200   -5.3800 H         1 UNK         0.0906 
     75 H75        27.2654   -5.0788   -4.1472 H         1 UNK         0.3140 
     76 H76        27.2278   -5.9589   -1.4595 H         1 UNK         0.1085 
     77 H77        28.8843   -4.1910   -1.0579 H         1 UNK         0.0836 
     78 H78        28.4392   -3.3616   -2.5298 H         1 UNK         0.0836 
     79 H79        32.1640   -4.8376   -3.0565 H         1 UNK         0.0731 
     80 H80        31.4940   -4.4450   -1.4940 H         1 UNK         0.0731 
     81 H81        31.8310   -3.2668   -5.0160 H         1 UNK         0.1312 
     82 H82        30.8475    0.7939   -4.0713 H         1 UNK         0.1406 
     83 H83        30.5519   -2.2331   -1.0546 H         1 UNK         0.1631 
     84 H84        30.3519    1.4233   -1.7608 H         1 UNK         0.0717 
     85 H85        30.5613    0.2503   -0.4861 H         1 UNK         0.0717 
     86 H86        26.5999    1.8061   -1.8721 H         1 UNK         0.0934 
     87 H87        28.1533    2.5811   -1.7190 H         1 UNK         0.0934 
     88 H88        28.8778    1.6675   -3.8972 H         1 UNK         0.0739 
     89 H89        26.5515   -0.0254   -3.7310 H         1 UNK         0.3093 
     90 H90        26.7018   -1.0683   -7.1533 H         1 UNK         0.0818 
     91 H91        27.1368   -3.3332   -6.2304 H         1 UNK         0.0819 
     92 H92        28.6043   -2.3723   -6.1678 H         1 UNK         0.0819 
     93 H93        27.6782   -2.6323   -4.7009 H         1 UNK         0.0819 
     94 H94        25.2061   -2.1932   -5.0817 H         1 UNK         0.3041 
     95 H95        22.8043    0.2615   -4.4245 H         1 UNK         0.0784 
     96 H96        21.9113   -0.6287   -6.5884 H         1 UNK         0.0793 
     97 H97        22.3821   -2.2583   -6.1255 H         1 UNK         0.0793 
     98 H98        21.1398   -1.3988   -5.2134 H         1 UNK         0.0793 
     99 H99        22.8011   -2.4239   -3.6340 H         1 UNK         0.3024 
    100 H100       24.6940   -1.9786   -0.6608 H         1 UNK         0.1171 
    101 H101       23.0654   -3.7893   -0.3689 H         1 UNK         0.0786 
    102 H102       22.2031   -2.3869   -0.9752 H         1 UNK         0.0786 
    103 H103       22.5795   -3.7287   -2.0556 H         1 UNK         0.0786 
    104 H104       25.3143   -3.5779   -3.0467 H         1 UNK         0.2977 
    105 H105       25.5317    2.0809   -4.8522 H         1 UNK         0.3127 
    106 H106       25.7915    5.0170   -5.1173 H         1 UNK         0.0770 
    107 H107       23.4873    3.1226   -5.8319 H         1 UNK         0.0814 
    108 H108       23.4480    4.8772   -5.9111 H         1 UNK         0.0814 
    109 H109       23.6166    4.0784   -4.3564 H         1 UNK         0.0814 
    110 H110       25.5182    2.0624   -7.1264 H         1 UNK         0.2983 
    111 H111       25.6647    3.4316   -9.6469 H         1 UNK         0.0947 
    112 H112       26.0759    0.4815   -8.9154 H         1 UNK         0.0806 
    113 H113       25.8365    1.0988  -10.5447 H         1 UNK         0.0806 
    114 H114       24.5472    1.2345   -9.3594 H         1 UNK         0.0806 
    115 H115       28.1356    2.2569   -7.4809 H         1 UNK         0.3000 
    116 H116       30.3226    2.1520   -7.4422 H         1 UNK         0.0850 
    117 H117       30.3580    4.4970   -8.3901 H         1 UNK         0.0810 
    118 H118       30.5119    3.8112  -10.0083 H         1 UNK         0.0810 
    119 H119       31.7716    3.5488   -8.8124 H         1 UNK         0.0810 
    120 H120       28.7543    0.1446   -8.5426 H         1 UNK         0.3040 
    121 H121       29.5676   -0.8845  -11.0512 H         1 UNK         0.0766 
    122 H122       28.2716   -2.8946  -10.3443 H         1 UNK         0.0812 
    123 H123       27.3838   -1.4163  -10.0165 H         1 UNK         0.0812 
    124 H124       28.1834   -2.2817   -8.7023 H         1 UNK         0.0812 
    125 H125       31.6489   -1.2977  -11.3928 H         1 UNK         0.3205 
    126 H126       33.6213   -2.2611  -11.4697 H         1 UNK         0.0754 
    127 H127       34.0452   -4.5037  -10.5930 H         1 UNK         0.0769 
    128 H128       32.4195   -4.4579  -11.2523 H         1 UNK         0.0769 
    129 H129       32.6694   -4.4076   -9.5072 H         1 UNK         0.0769 
    130 H130       33.0217   -0.1349   -9.5039 H         1 UNK         0.2981 
    131 H131       35.6808   -0.2541   -8.3022 H         1 UNK         0.0541 
    132 H132       34.2434    3.1154   -9.8787 H         1 UNK         0.3459 
    133 H133       33.2322    1.6952   -9.9055 H         1 UNK         0.3459 
    134 H134       34.3447   -1.0104   -6.3953 H         1 UNK         0.0612 
    135 H135       35.0348    0.5515   -6.0889 H         1 UNK         0.0612 
    136 H136       32.1169   -1.6002   -6.6872 H         1 UNK         0.0624 
    137 H137       30.6814   -0.6129   -6.6168 H         1 UNK         0.0624 
@<TRIPOS>BOND
     1    1    2 1    
     2    1   72 1    
     3    1   73 1    
     4    1   74 1    
     5    2    3 2    
     6    2    4 am   BACKBONE|DICT|INTERRES
     7    4    5 1    
     8    4   75 1    
     9    5    6 1    
    10    5   35 1    
    11    5   76 1    
    12    6    7 1    
    13    6   77 1    
    14    6   78 1    
    15    7    8 1    
    16    8    9 1    
    17    8   79 1    
    18    8   80 1    
    19    9   10 ar   
    20    9   14 ar   
    21   10   11 ar   
    22   10   81 1    
    23   11   12 ar   
    24   11   71 1    
    25   12   13 ar   
    26   12   82 1    
    27   13   14 ar   
    28   13   15 1    
    29   14   83 1    
    30   15   16 1    
    31   15   84 1    
    32   15   85 1    
    33   16   17 1    
    34   17   18 1    
    35   17   86 1    
    36   17   87 1    
    37   18   19 1    
    38   18   37 1    
    39   18   88 1    
    40   19   20 am   BACKBONE|DICT|INTERRES
    41   19   89 1    
    42   20   21 2    
    43   20   22 1    
    44   22   23 1    
    45   22   24 1    
    46   22   90 1    
    47   23   91 1    
    48   23   92 1    
    49   23   93 1    
    50   24   25 am   BACKBONE|DICT|INTERRES
    51   24   94 1    
    52   25   26 2    
    53   25   27 1    
    54   27   28 1    
    55   27   29 1    
    56   27   95 1    
    57   28   96 1    
    58   28   97 1    
    59   28   98 1    
    60   29   30 am   BACKBONE|DICT|INTERRES
    61   29   99 1    
    62   30   31 2    
    63   30   32 1    
    64   32   33 1    
    65   32   34 1    
    66   32  100 1    
    67   33  101 1    
    68   33  102 1    
    69   33  103 1    
    70   34   35 am   BACKBONE|DICT|INTERRES
    71   34  104 1    
    72   35   36 2    
    73   37   38 2    
    74   37   39 am   BACKBONE|DICT|INTERRES
    75   39   40 1    
    76   39  105 1    
    77   40   41 1    
    78   40   42 1    
    79   40  106 1    
    80   41  107 1    
    81   41  108 1    
    82   41  109 1    
    83   42   43 2    
    84   42   44 am   BACKBONE|DICT|INTERRES
    85   44   45 1    
    86   44  110 1    
    87   45   46 1    
    88   45   47 1    
    89   45  111 1    
    90   46  112 1    
    91   46  113 1    
    92   46  114 1    
    93   47   48 2    
    94   47   49 am   BACKBONE|DICT|INTERRES
    95   49   50 1    
    96   49  115 1    
    97   50   51 1    
    98   50   52 1    
    99   50  116 1    
   100   51  117 1    
   101   51  118 1    
   102   51  119 1    
   103   52   53 2    
   104   52   54 am   BACKBONE|DICT|INTERRES
   105   54   55 1    
   106   54  120 1    
   107   55   56 1    
   108   55   57 1    
   109   55  121 1    
   110   56  122 1    
   111   56  123 1    
   112   56  124 1    
   113   57   58 2    
   114   57   59 am   BACKBONE|DICT|INTERRES
   115   59   60 1    
   116   59  125 1    
   117   60   61 1    
   118   60   62 1    
   119   60  126 1    
   120   61  127 1    
   121   61  128 1    
   122   61  129 1    
   123   62   63 2    
   124   62   64 am   BACKBONE|DICT|INTERRES
   125   64   65 1    
   126   64  130 1    
   127   65   66 1    
   128   65   69 1    
   129   65  131 1    
   130   66   67 am   BACKBONE|DICT|INTERRES
   131   66   68 2    
   132   67  132 1    
   133   67  133 1    
   134   69   70 1    
   135   69  134 1    
   136   69  135 1    
   137   70   71 1    
   138   71  136 1    
   139   71  137 1    
@<TRIPOS>SUBSTRUCTURE
     1 UNK         1 GROUP             0       ****    0 ROOT    
