@<TRIPOS>MOLECULE
3R137
137   139    1
SMALL
USER_CHARGES


@<TRIPOS>ATOM
      1 CA         31.0084   -3.5770   -4.7019 C.3       0 UNK        -0.2020 
      2 C          30.1137   -4.4055   -3.7957 C.2       0 UNK         0.4855 
      3 O          29.9795   -5.6105   -4.0084 O.2       0 UNK        -0.5197 
      4 N          29.4920   -3.7737   -2.7915 N.am      1 UNK        -0.4892 
      5 CA         28.6011   -4.4309   -1.8224 C.3       1 UNK         0.0835 
      6 C6         28.4721   -3.6382   -0.4956 C.3       12 UNK        -0.0855 
      7 S7         30.0803   -3.2771    0.2917 S.3       12 UNK        -0.2931 
      8 C8         30.0949   -1.4553    0.3050 C.3       12 UNK         0.0378 
      9 C9         30.3139   -0.8801   -1.0862 C.ar      12 UNK        -0.0802 
     10 C10        31.6124   -0.7119   -1.5795 C.ar      12 UNK        -0.0944 
     11 C11        31.8232   -0.1802   -2.8555 C.ar      12 UNK        -0.0787 
     12 C12        30.7244    0.1756   -3.6418 C.ar      12 UNK        -0.0862 
     13 C13        29.4246    0.0115   -3.1573 C.ar      12 UNK        -0.0733 
     14 C14        29.2224   -0.5046   -1.8761 C.ar      12 UNK        -0.0832 
     15 C15        28.2437    0.4014   -4.0240 C.3       12 UNK         0.0240 
     16 S16        27.7808   -0.9635   -5.1327 S.3       12 UNK        -0.2522 
     17 C17        26.9841   -0.0310   -6.4814 C.3       12 UNK        -0.0967 
     18 CA         25.4512   -0.2346   -6.5596 C.3       5 UNK         0.0660 
     19 N          24.7226    0.1141   -5.3355 N.am      5 UNK        -0.4015 
     20 C          24.6907    1.2852   -4.6787 C.2       4 UNK         0.4946 
     21 O          25.3339    2.2850   -4.9986 O.2       4 UNK        -0.5353 
     22 CA         23.7879    1.3719   -3.4314 C.3       4 UNK         0.0277 
     23 CB         22.5077    2.1620   -3.7513 C.3       4 UNK        -0.1981 
     24 N          23.4151    0.0665   -2.8806 N.am      4 UNK        -0.4209 
     25 C          24.2282   -0.7236   -2.1671 C.2       3 UNK         0.4942 
     26 O          25.3697   -0.4081   -1.8281 O.2       3 UNK        -0.5208 
     27 CA         23.6975   -2.1197   -1.7862 C.3       3 UNK         0.0250 
     28 CB         22.1755   -2.3060   -1.9884 C.3       3 UNK        -0.1990 
     29 N          24.4476   -3.1658   -2.4888 N.am      3 UNK        -0.4232 
     30 C          24.5997   -3.3027   -3.8148 C.2       2 UNK         0.4993 
     31 O          24.0192   -2.5994   -4.6455 O.2       2 UNK        -0.5286 
     32 CA         25.5954   -4.3834   -4.2785 C.3       2 UNK         0.0209 
     33 CB         25.8250   -4.3720   -5.8018 C.3       2 UNK        -0.1931 
     34 N          26.8897   -4.2360   -3.6056 N.am      2 UNK        -0.4546 
     35 C          27.1990   -4.7320   -2.3993 C.2       1 UNK         0.5154 
     36 O          26.3966   -5.3777   -1.7228 O.2       1 UNK        -0.5181 
     37 C          24.8834    0.4844   -7.7978 C.2       5 UNK         0.5014 
     38 O          25.0463    1.6972   -7.9408 O.2       5 UNK        -0.5248 
     39 N          24.3087   -0.2873   -8.7317 N.am      6 UNK        -0.4434 
     40 CA         23.8639    0.2008  -10.0455 C.3       6 UNK         0.0363 
     41 CB         23.1020   -0.9172  -10.7752 C.3       6 UNK        -0.1936 
     42 C          25.0161    0.7311  -10.9240 C.2       6 UNK         0.5081 
     43 O          24.7946    1.6212  -11.7446 O.2       6 UNK        -0.5248 
     44 N          26.2262    0.1939  -10.7145 N.am      7 UNK        -0.4718 
     45 CA         27.4686    0.6280  -11.3583 C.3       7 UNK         0.0273 
     46 CB         28.4244   -0.5756  -11.4389 C.3       7 UNK        -0.1935 
     47 C          28.1522    1.8148  -10.6481 C.2       7 UNK         0.5018 
     48 O          29.1835    2.2736  -11.1406 O.2       7 UNK        -0.5186 
     49 N          27.5982    2.2801   -9.5150 N.am      8 UNK        -0.4240 
     50 CA         28.1292    3.3162   -8.6207 C.3       8 UNK         0.0235 
     51 CB         28.1531    4.7008   -9.3066 C.3       8 UNK        -0.2000 
     52 C          29.4806    2.8994   -8.0139 C.2       8 UNK         0.4941 
     53 O          29.4947    2.1633   -7.0268 O.2       8 UNK        -0.5273 
     54 N          30.5957    3.3313   -8.6177 N.am      9 UNK        -0.4262 
     55 CA         31.9683    2.9923   -8.2244 C.3       9 UNK         0.0264 
     56 CB         32.9294    4.0364   -8.8227 C.3       9 UNK        -0.1955 
     57 C          32.3505    1.5461   -8.6084 C.2       9 UNK         0.5031 
     58 O          33.3475    1.3280   -9.3003 O.2       9 UNK        -0.5390 
     59 N          31.5475    0.5793   -8.1457 N.am      10 UNK        -0.4204 
     60 CA         31.6412   -0.8523   -8.4489 C.3       10 UNK         0.0237 
     61 CB         30.4440   -1.5723   -7.8108 C.3       10 UNK        -0.1985 
     62 C          32.9618   -1.5189   -8.0230 C.2       10 UNK         0.4970 
     63 O          33.3439   -2.5241   -8.6233 O.2       10 UNK        -0.4914 
     64 N          33.6354   -0.9490   -7.0163 N.am      11 UNK        -0.4285 
     65 CA         34.9711   -1.3670   -6.5631 C.3       11 UNK         0.1007 
     66 C          36.1303   -0.9182   -7.5025 C.2       11 UNK         0.5703 
     67 N          35.9010   -0.0741   -8.5035 N.am      11 UNK        -0.7361 
     68 O          37.2650   -1.3544   -7.3232 O.2       11 UNK        -0.4986 
     69 C69        35.2476   -0.9471   -5.0942 C.3       12 UNK        -0.0947 
     70 S70        33.9653   -1.5450   -3.9415 S.3       12 UNK        -0.2240 
     71 C71        33.2334    0.0233   -3.3852 C.3       12 UNK         0.0194 
     72 H72        30.9203   -2.5115   -4.4960 H         1 UNK         0.0906 
     73 H73        30.7424   -3.7451   -5.7445 H         1 UNK         0.0906 
     74 H74        32.0499   -3.8663   -4.5665 H         1 UNK         0.0906 
     75 H75        29.6616   -2.7882   -2.6348 H         1 UNK         0.3140 
     76 H76        29.0384   -5.4014   -1.5766 H         1 UNK         0.1085 
     77 H77        27.9122   -2.7155   -0.6490 H         1 UNK         0.0836 
     78 H78        27.8894   -4.2130    0.2271 H         1 UNK         0.0836 
     79 H79        30.8915   -1.1166    0.9693 H         1 UNK         0.0731 
     80 H80        29.1646   -1.0816    0.7361 H         1 UNK         0.0731 
     81 H81        32.4605   -0.9968   -0.9716 H         1 UNK         0.1312 
     82 H82        30.8751    0.5808   -4.6335 H         1 UNK         0.1406 
     83 H83        28.2127   -0.6135   -1.5020 H         1 UNK         0.1631 
     84 H84        28.5065    1.2907   -4.5981 H         1 UNK         0.0717 
     85 H85        27.3855    0.6752   -3.4093 H         1 UNK         0.0717 
     86 H86        27.2182    1.0303   -6.3940 H         1 UNK         0.0934 
     87 H87        27.4530   -0.3535   -7.4117 H         1 UNK         0.0934 
     88 H88        25.2783   -1.3027   -6.6949 H         1 UNK         0.0739 
     89 H89        24.1954   -0.6626   -4.9475 H         1 UNK         0.3093 
     90 H90        24.3439    1.9198   -2.6673 H         1 UNK         0.0818 
     91 H91        21.8920    2.2990   -2.8620 H         1 UNK         0.0819 
     92 H92        21.9017    1.6618   -4.5078 H         1 UNK         0.0819 
     93 H93        22.7480    3.1557   -4.1323 H         1 UNK         0.0819 
     94 H94        22.4991   -0.2854   -3.1198 H         1 UNK         0.3041 
     95 H95        23.9072   -2.2453   -0.7229 H         1 UNK         0.0784 
     96 H96        21.6091   -1.5550   -1.4358 H         1 UNK         0.0793 
     97 H97        21.8802   -2.2440   -3.0363 H         1 UNK         0.0793 
     98 H98        21.8532   -3.2795   -1.6187 H         1 UNK         0.0793 
     99 H99        24.9820   -3.7961   -1.9017 H         1 UNK         0.3024 
    100 H100       25.1584   -5.3500   -4.0167 H         1 UNK         0.1171 
    101 H101       24.8855   -4.4947   -6.3423 H         1 UNK         0.0786 
    102 H102       26.2771   -3.4385   -6.1360 H         1 UNK         0.0786 
    103 H103       26.4810   -5.1873   -6.1075 H         1 UNK         0.0786 
    104 H104       27.5827   -3.6684   -4.0736 H         1 UNK         0.2977 
    105 H105       24.2009   -1.2767   -8.5563 H         1 UNK         0.3127 
    106 H106       23.1745    1.0311   -9.8769 H         1 UNK         0.0770 
    107 H107       23.7346   -1.7869  -10.9571 H         1 UNK         0.0814 
    108 H108       22.7380   -0.5717  -11.7439 H         1 UNK         0.0814 
    109 H109       22.2333   -1.2451  -10.2041 H         1 UNK         0.0814 
    110 H110       26.3045   -0.5491  -10.0359 H         1 UNK         0.2983 
    111 H111       27.2468    0.9532  -12.3774 H         1 UNK         0.0947 
    112 H112       28.6941   -0.9458  -10.4501 H         1 UNK         0.0806 
    113 H113       29.3510   -0.3091  -11.9493 H         1 UNK         0.0806 
    114 H114       27.9783   -1.3996  -11.9962 H         1 UNK         0.0806 
    115 H115       26.7320    1.8583   -9.1997 H         1 UNK         0.3000 
    116 H116       27.4300    3.3815   -7.7848 H         1 UNK         0.0850 
    117 H117       28.5396    5.4644   -8.6301 H         1 UNK         0.0810 
    118 H118       27.1473    5.0077   -9.5935 H         1 UNK         0.0810 
    119 H119       28.7681    4.7182  -10.2064 H         1 UNK         0.0810 
    120 H120       30.4894    3.8507   -9.4779 H         1 UNK         0.3040 
    121 H121       32.0409    3.0619   -7.1368 H         1 UNK         0.0766 
    122 H122       33.9574    3.8462   -8.5109 H         1 UNK         0.0812 
    123 H123       32.6755    5.0445   -8.4946 H         1 UNK         0.0812 
    124 H124       32.9115    4.0226   -9.9132 H         1 UNK         0.0812 
    125 H125       30.7447    0.8856   -7.5991 H         1 UNK         0.3205 
    126 H126       31.5657   -0.9579   -9.5331 H         1 UNK         0.0754 
    127 H127       30.4269   -1.4384   -6.7289 H         1 UNK         0.0769 
    128 H128       30.4739   -2.6439   -8.0126 H         1 UNK         0.0769 
    129 H129       29.5016   -1.1975   -8.2060 H         1 UNK         0.0769 
    130 H130       33.2517   -0.1254   -6.5813 H         1 UNK         0.2981 
    131 H131       34.9892   -2.4584   -6.5848 H         1 UNK         0.0541 
    132 H132       34.9742    0.2976   -8.6823 H         1 UNK         0.3459 
    133 H133       36.6675    0.1962   -9.0986 H         1 UNK         0.3459 
    134 H134       35.3439    0.1372   -5.0169 H         1 UNK         0.0612 
    135 H135       36.2011   -1.3574   -4.7569 H         1 UNK         0.0612 
    136 H136       33.2188    0.7367   -4.2106 H         1 UNK         0.0624 
    137 H137       33.8646    0.4601   -2.6100 H         1 UNK         0.0624 
@<TRIPOS>BOND
     1    1    2 1    
     2    1   72 1    
     3    1   73 1    
     4    1   74 1    
     5    2    3 2    
     6    2    4 am   BACKBONE|DICT|INTERRES
     7    4    5 1    
     8    4   75 1    
     9    5    6 1    
    10    5   35 1    
    11    5   76 1    
    12    6    7 1    
    13    6   77 1    
    14    6   78 1    
    15    7    8 1    
    16    8    9 1    
    17    8   79 1    
    18    8   80 1    
    19    9   10 ar   
    20    9   14 ar   
    21   10   11 ar   
    22   10   81 1    
    23   11   12 ar   
    24   11   71 1    
    25   12   13 ar   
    26   12   82 1    
    27   13   14 ar   
    28   13   15 1    
    29   14   83 1    
    30   15   16 1    
    31   15   84 1    
    32   15   85 1    
    33   16   17 1    
    34   17   18 1    
    35   17   86 1    
    36   17   87 1    
    37   18   19 1    
    38   18   37 1    
    39   18   88 1    
    40   19   20 am   BACKBONE|DICT|INTERRES
    41   19   89 1    
    42   20   21 2    
    43   20   22 1    
    44   22   23 1    
    45   22   24 1    
    46   22   90 1    
    47   23   91 1    
    48   23   92 1    
    49   23   93 1    
    50   24   25 am   BACKBONE|DICT|INTERRES
    51   24   94 1    
    52   25   26 2    
    53   25   27 1    
    54   27   28 1    
    55   27   29 1    
    56   27   95 1    
    57   28   96 1    
    58   28   97 1    
    59   28   98 1    
    60   29   30 am   BACKBONE|DICT|INTERRES
    61   29   99 1    
    62   30   31 2    
    63   30   32 1    
    64   32   33 1    
    65   32   34 1    
    66   32  100 1    
    67   33  101 1    
    68   33  102 1    
    69   33  103 1    
    70   34   35 am   BACKBONE|DICT|INTERRES
    71   34  104 1    
    72   35   36 2    
    73   37   38 2    
    74   37   39 am   BACKBONE|DICT|INTERRES
    75   39   40 1    
    76   39  105 1    
    77   40   41 1    
    78   40   42 1    
    79   40  106 1    
    80   41  107 1    
    81   41  108 1    
    82   41  109 1    
    83   42   43 2    
    84   42   44 am   BACKBONE|DICT|INTERRES
    85   44   45 1    
    86   44  110 1    
    87   45   46 1    
    88   45   47 1    
    89   45  111 1    
    90   46  112 1    
    91   46  113 1    
    92   46  114 1    
    93   47   48 2    
    94   47   49 am   BACKBONE|DICT|INTERRES
    95   49   50 1    
    96   49  115 1    
    97   50   51 1    
    98   50   52 1    
    99   50  116 1    
   100   51  117 1    
   101   51  118 1    
   102   51  119 1    
   103   52   53 2    
   104   52   54 am   BACKBONE|DICT|INTERRES
   105   54   55 1    
   106   54  120 1    
   107   55   56 1    
   108   55   57 1    
   109   55  121 1    
   110   56  122 1    
   111   56  123 1    
   112   56  124 1    
   113   57   58 2    
   114   57   59 am   BACKBONE|DICT|INTERRES
   115   59   60 1    
   116   59  125 1    
   117   60   61 1    
   118   60   62 1    
   119   60  126 1    
   120   61  127 1    
   121   61  128 1    
   122   61  129 1    
   123   62   63 2    
   124   62   64 am   BACKBONE|DICT|INTERRES
   125   64   65 1    
   126   64  130 1    
   127   65   66 1    
   128   65   69 1    
   129   65  131 1    
   130   66   67 am   BACKBONE|DICT|INTERRES
   131   66   68 2    
   132   67  132 1    
   133   67  133 1    
   134   69   70 1    
   135   69  134 1    
   136   69  135 1    
   137   70   71 1    
   138   71  136 1    
   139   71  137 1    
@<TRIPOS>SUBSTRUCTURE
     1 UNK         1 GROUP             0       ****    0 ROOT    
