@<TRIPOS>MOLECULE
3R137
137   139    1
SMALL
USER_CHARGES


@<TRIPOS>ATOM
      1 CA         32.2342   -6.6323   -6.2908 C.3       0 UNK        -0.2020 
      2 C          31.0139   -6.5927   -5.3832 C.2       0 UNK         0.4855 
      3 O          30.2263   -7.5388   -5.3763 O.2       0 UNK        -0.5197 
      4 N          30.8585   -5.5075   -4.6149 N.am      1 UNK        -0.4892 
      5 CA         29.7299   -5.2568   -3.7136 C.3       1 UNK         0.0835 
      6 C6         30.0294   -4.0725   -2.7611 C.3       12 UNK        -0.0855 
      7 S7         29.0043   -4.1036   -1.2566 S.3       12 UNK        -0.2931 
      8 C8         30.0814   -3.2161   -0.0869 C.3       12 UNK         0.0378 
      9 C9         30.3133   -1.7673   -0.4981 C.ar      12 UNK        -0.0802 
     10 C10        31.5961   -1.3191   -0.8288 C.ar      12 UNK        -0.0944 
     11 C11        31.8192    0.0246   -1.1484 C.ar      12 UNK        -0.0787 
     12 C12        30.7413    0.9170   -1.1640 C.ar      12 UNK        -0.0862 
     13 C13        29.4525    0.4789   -0.8404 C.ar      12 UNK        -0.0733 
     14 C14        29.2483   -0.8624   -0.5033 C.ar      12 UNK        -0.0832 
     15 C15        28.2882    1.4590   -0.7829 C.3       12 UNK         0.0240 
     16 S16        26.9795    1.0648   -1.9872 S.3       12 UNK        -0.2522 
     17 C17        27.6281    1.8123   -3.5202 C.3       12 UNK        -0.0967 
     18 CA         27.4122    0.9090   -4.7706 C.3       5 UNK         0.0660 
     19 N          26.0226    0.4768   -4.9547 N.am      5 UNK        -0.4015 
     20 C          24.9839    1.2618   -5.2824 C.2       4 UNK         0.4946 
     21 O          25.0671    2.4875   -5.3846 O.2       4 UNK        -0.5353 
     22 CA         23.6344    0.5823   -5.5817 C.3       4 UNK         0.0277 
     23 CB         22.9850    1.1663   -6.8504 C.3       4 UNK        -0.1981 
     24 N          23.7679   -0.8701   -5.7391 N.am      4 UNK        -0.4209 
     25 C          23.3977   -1.7715   -4.8193 C.2       3 UNK         0.4942 
     26 O          22.8560   -1.4840   -3.7499 O.2       3 UNK        -0.5208 
     27 CA         23.6834   -3.2510   -5.1355 C.3       3 UNK         0.0250 
     28 CB         22.4878   -3.8781   -5.8738 C.3       3 UNK        -0.1990 
     29 N          24.9146   -3.5197   -5.8934 N.am      3 UNK        -0.4232 
     30 C          26.1535   -3.1626   -5.5235 C.2       2 UNK         0.4993 
     31 O          26.4000   -2.3813   -4.6021 O.2       2 UNK        -0.5286 
     32 CA         27.3145   -3.7734   -6.3305 C.3       2 UNK         0.0209 
     33 CB         27.7974   -2.8037   -7.4193 C.3       2 UNK        -0.1931 
     34 N          28.4499   -4.1277   -5.4752 N.am      2 UNK        -0.4546 
     35 C          28.4181   -5.0481   -4.4985 C.2       1 UNK         0.5154 
     36 O          27.4328   -5.7428   -4.2407 O.2       1 UNK        -0.5181 
     37 C          27.9416    1.5152   -6.0911 C.2       5 UNK         0.5014 
     38 O          27.6416    0.9769   -7.1606 O.2       5 UNK        -0.5248 
     39 N          28.6782    2.6338   -6.0157 N.am      6 UNK        -0.4434 
     40 CA         29.2906    3.3358   -7.1490 C.3       6 UNK         0.0363 
     41 CB         30.1452    4.4989   -6.6207 C.3       6 UNK        -0.1936 
     42 C          28.3204    3.8223   -8.2423 C.2       6 UNK         0.5081 
     43 O          28.7696    4.0719   -9.3610 O.2       6 UNK        -0.5248 
     44 N          27.0200    3.9251   -7.9305 N.am      7 UNK        -0.4718 
     45 CA         25.9663    4.1985   -8.9119 C.3       7 UNK         0.0273 
     46 CB         24.6825    4.6228   -8.1825 C.3       7 UNK        -0.1935 
     47 C          25.6941    3.0066   -9.8511 C.2       7 UNK         0.5018 
     48 O          25.1891    3.2246  -10.9531 O.2       7 UNK        -0.5186 
     49 N          26.0352    1.7853   -9.4145 N.am      8 UNK        -0.4240 
     50 CA         25.9912    0.5684  -10.2226 C.3       8 UNK         0.0235 
     51 CB         25.4273   -0.5956   -9.3896 C.3       8 UNK        -0.2000 
     52 C          27.3889    0.2512  -10.7732 C.2       8 UNK         0.4941 
     53 O          27.5460    0.1615  -11.9917 O.2       8 UNK        -0.5273 
     54 N          28.3792    0.1140   -9.8819 N.am      9 UNK        -0.4262 
     55 CA         29.7856   -0.1257  -10.2061 C.3       9 UNK         0.0264 
     56 CB         30.0026   -1.5698  -10.6974 C.3       9 UNK        -0.1955 
     57 C          30.6086    0.1384   -8.9447 C.2       9 UNK         0.5031 
     58 O          30.1839   -0.2874   -7.8703 O.2       9 UNK        -0.5390 
     59 N          31.7521    0.8243   -9.0943 N.am      10 UNK        -0.4204 
     60 CA         32.6571    1.3010   -8.0358 C.3       10 UNK         0.0237 
     61 CB         33.9085    1.9117   -8.6928 C.3       10 UNK        -0.1985 
     62 C          33.0308    0.2306   -6.9919 C.2       10 UNK         0.4970 
     63 O          34.0064   -0.4977   -7.1845 O.2       10 UNK        -0.4914 
     64 N          32.2180    0.1512   -5.9290 N.am      11 UNK        -0.4285 
     65 CA         32.2631   -0.8676   -4.8675 C.3       11 UNK         0.1007 
     66 C          32.0532   -2.3188   -5.3949 C.2       11 UNK         0.5703 
     67 N          31.2865   -2.5167   -6.4624 N.am      11 UNK        -0.7361 
     68 O          32.5622   -3.2820   -4.8270 O.2       11 UNK        -0.4986 
     69 C69        33.4986   -0.7130   -3.9380 C.3       12 UNK        -0.0947 
     70 S70        33.5462    0.9321   -3.1491 S.3       12 UNK        -0.2240 
     71 C71        33.2355    0.5266   -1.4030 C.3       12 UNK         0.0194 
     72 H72        32.8356   -7.5145   -6.0727 H         1 UNK         0.0906 
     73 H73        31.9247   -6.6802   -7.3344 H         1 UNK         0.0906 
     74 H74        32.8662   -5.7534   -6.1637 H         1 UNK         0.0906 
     75 H75        31.5538   -4.7632   -4.6638 H         1 UNK         0.3140 
     76 H76        29.6066   -6.1584   -3.1089 H         1 UNK         0.1085 
     77 H77        31.0744   -4.1132   -2.4486 H         1 UNK         0.0836 
     78 H78        29.9058   -3.1078   -3.2571 H         1 UNK         0.0836 
     79 H79        29.6182   -3.2346    0.9006 H         1 UNK         0.0731 
     80 H80        31.0266   -3.7526    0.0107 H         1 UNK         0.0731 
     81 H81        32.4278   -2.0100   -0.8068 H         1 UNK         0.1312 
     82 H82        30.9154    1.9582   -1.3996 H         1 UNK         0.1406 
     83 H83        28.2562   -1.2029   -0.2382 H         1 UNK         0.1631 
     84 H84        28.6256    2.4860   -0.9316 H         1 UNK         0.0717 
     85 H85        27.8565    1.4257    0.2184 H         1 UNK         0.0717 
     86 H86        27.1413    2.7813   -3.6470 H         1 UNK         0.0934 
     87 H87        28.6920    2.0096   -3.3782 H         1 UNK         0.0934 
     88 H88        27.9881   -0.0054   -4.6188 H         1 UNK         0.0739 
     89 H89        25.8832   -0.5259   -4.8711 H         1 UNK         0.3093 
     90 H90        22.9772    0.8112   -4.7399 H         1 UNK         0.0818 
     91 H91        22.0780    0.6259   -7.1215 H         1 UNK         0.0819 
     92 H92        22.7009    2.2078   -6.6945 H         1 UNK         0.0819 
     93 H93        23.6629    1.1411   -7.7031 H         1 UNK         0.0819 
     94 H94        24.2112   -1.2003   -6.5849 H         1 UNK         0.3041 
     95 H95        23.7903   -3.7613   -4.1750 H         1 UNK         0.0784 
     96 H96        21.5591   -3.7160   -5.3235 H         1 UNK         0.0793 
     97 H97        22.3564   -3.4487   -6.8687 H         1 UNK         0.0793 
     98 H98        22.6087   -4.9561   -5.9854 H         1 UNK         0.0793 
     99 H99        24.8132   -4.1405   -6.6842 H         1 UNK         0.3024 
    100 H100       26.9703   -4.6937   -6.8079 H         1 UNK         0.1171 
    101 H101       27.0291   -2.6632   -8.1776 H         1 UNK         0.0786 
    102 H102       28.6798   -3.1861   -7.9317 H         1 UNK         0.0786 
    103 H103       28.0470   -1.8230   -7.0107 H         1 UNK         0.0786 
    104 H104       29.2955   -3.5919   -5.6042 H         1 UNK         0.2977 
    105 H105       28.8407    3.0400   -5.1064 H         1 UNK         0.3127 
    106 H106       29.9523    2.6237   -7.6376 H         1 UNK         0.0770 
    107 H107       29.5394    5.2353   -6.0912 H         1 UNK         0.0814 
    108 H108       30.6471    5.0184   -7.4386 H         1 UNK         0.0814 
    109 H109       30.9217    4.1476   -5.9410 H         1 UNK         0.0814 
    110 H110       26.7218    3.6873   -6.9933 H         1 UNK         0.2983 
    111 H111       26.2907    5.0341   -9.5364 H         1 UNK         0.0947 
    112 H112       23.8944    4.8738   -8.8937 H         1 UNK         0.0806 
    113 H113       24.8502    5.5026   -7.5610 H         1 UNK         0.0806 
    114 H114       24.3013    3.8280   -7.5428 H         1 UNK         0.0806 
    115 H115       26.4984    1.7028   -8.5133 H         1 UNK         0.3000 
    116 H116       25.3285    0.7074  -11.0798 H         1 UNK         0.0850 
    117 H117       25.5777   -1.5507   -9.8950 H         1 UNK         0.0810 
    118 H118       24.3541   -0.4831   -9.2395 H         1 UNK         0.0810 
    119 H119       25.8972   -0.6574   -8.4085 H         1 UNK         0.0810 
    120 H120       28.1904    0.2305   -8.8864 H         1 UNK         0.3040 
    121 H121       30.0879    0.5760  -10.9863 H         1 UNK         0.0766 
    122 H122       31.0580   -1.7607  -10.8958 H         1 UNK         0.0812 
    123 H123       29.4614   -1.7663  -11.6227 H         1 UNK         0.0812 
    124 H124       29.6732   -2.2987   -9.9569 H         1 UNK         0.0812 
    125 H125       32.0159    1.0859  -10.0333 H         1 UNK         0.3205 
    126 H126       32.1524    2.1095   -7.5062 H         1 UNK         0.0754 
    127 H127       34.6107    2.2699   -7.9384 H         1 UNK         0.0769 
    128 H128       33.6521    2.7639   -9.3227 H         1 UNK         0.0769 
    129 H129       34.4374    1.1843   -9.3103 H         1 UNK         0.0769 
    130 H130       31.4006    0.7421   -5.9197 H         1 UNK         0.2981 
    131 H131       31.3823   -0.6845   -4.2507 H         1 UNK         0.0541 
    132 H132       30.8748   -1.7183   -6.9439 H         1 UNK         0.3459 
    133 H133       31.2088   -3.4371   -6.8595 H         1 UNK         0.3459 
    134 H134       34.4236   -0.8572   -4.4979 H         1 UNK         0.0612 
    135 H135       33.4952   -1.4781   -3.1604 H         1 UNK         0.0612 
    136 H136       33.4065    1.4225   -0.8046 H         1 UNK         0.0624 
    137 H137       33.9741   -0.2036   -1.0685 H         1 UNK         0.0624 
@<TRIPOS>BOND
     1    1    2 1    
     2    1   72 1    
     3    1   73 1    
     4    1   74 1    
     5    2    3 2    
     6    2    4 am   BACKBONE|DICT|INTERRES
     7    4    5 1    
     8    4   75 1    
     9    5    6 1    
    10    5   35 1    
    11    5   76 1    
    12    6    7 1    
    13    6   77 1    
    14    6   78 1    
    15    7    8 1    
    16    8    9 1    
    17    8   79 1    
    18    8   80 1    
    19    9   10 ar   
    20    9   14 ar   
    21   10   11 ar   
    22   10   81 1    
    23   11   12 ar   
    24   11   71 1    
    25   12   13 ar   
    26   12   82 1    
    27   13   14 ar   
    28   13   15 1    
    29   14   83 1    
    30   15   16 1    
    31   15   84 1    
    32   15   85 1    
    33   16   17 1    
    34   17   18 1    
    35   17   86 1    
    36   17   87 1    
    37   18   19 1    
    38   18   37 1    
    39   18   88 1    
    40   19   20 am   BACKBONE|DICT|INTERRES
    41   19   89 1    
    42   20   21 2    
    43   20   22 1    
    44   22   23 1    
    45   22   24 1    
    46   22   90 1    
    47   23   91 1    
    48   23   92 1    
    49   23   93 1    
    50   24   25 am   BACKBONE|DICT|INTERRES
    51   24   94 1    
    52   25   26 2    
    53   25   27 1    
    54   27   28 1    
    55   27   29 1    
    56   27   95 1    
    57   28   96 1    
    58   28   97 1    
    59   28   98 1    
    60   29   30 am   BACKBONE|DICT|INTERRES
    61   29   99 1    
    62   30   31 2    
    63   30   32 1    
    64   32   33 1    
    65   32   34 1    
    66   32  100 1    
    67   33  101 1    
    68   33  102 1    
    69   33  103 1    
    70   34   35 am   BACKBONE|DICT|INTERRES
    71   34  104 1    
    72   35   36 2    
    73   37   38 2    
    74   37   39 am   BACKBONE|DICT|INTERRES
    75   39   40 1    
    76   39  105 1    
    77   40   41 1    
    78   40   42 1    
    79   40  106 1    
    80   41  107 1    
    81   41  108 1    
    82   41  109 1    
    83   42   43 2    
    84   42   44 am   BACKBONE|DICT|INTERRES
    85   44   45 1    
    86   44  110 1    
    87   45   46 1    
    88   45   47 1    
    89   45  111 1    
    90   46  112 1    
    91   46  113 1    
    92   46  114 1    
    93   47   48 2    
    94   47   49 am   BACKBONE|DICT|INTERRES
    95   49   50 1    
    96   49  115 1    
    97   50   51 1    
    98   50   52 1    
    99   50  116 1    
   100   51  117 1    
   101   51  118 1    
   102   51  119 1    
   103   52   53 2    
   104   52   54 am   BACKBONE|DICT|INTERRES
   105   54   55 1    
   106   54  120 1    
   107   55   56 1    
   108   55   57 1    
   109   55  121 1    
   110   56  122 1    
   111   56  123 1    
   112   56  124 1    
   113   57   58 2    
   114   57   59 am   BACKBONE|DICT|INTERRES
   115   59   60 1    
   116   59  125 1    
   117   60   61 1    
   118   60   62 1    
   119   60  126 1    
   120   61  127 1    
   121   61  128 1    
   122   61  129 1    
   123   62   63 2    
   124   62   64 am   BACKBONE|DICT|INTERRES
   125   64   65 1    
   126   64  130 1    
   127   65   66 1    
   128   65   69 1    
   129   65  131 1    
   130   66   67 am   BACKBONE|DICT|INTERRES
   131   66   68 2    
   132   67  132 1    
   133   67  133 1    
   134   69   70 1    
   135   69  134 1    
   136   69  135 1    
   137   70   71 1    
   138   71  136 1    
   139   71  137 1    
@<TRIPOS>SUBSTRUCTURE
     1 UNK         1 GROUP             0       ****    0 ROOT    
