@<TRIPOS>MOLECULE
3R137
137   139    1
SMALL
USER_CHARGES


@<TRIPOS>ATOM
      1 CA         28.7639   -5.3394    1.6368 C.3       0 UNK        -0.2020 
      2 C          27.9697   -4.2893    0.8755 C.2       0 UNK         0.4855 
      3 O          28.0838   -4.2169   -0.3460 O.2       0 UNK        -0.5197 
      4 N          27.1634   -3.4950    1.5934 N.am      1 UNK        -0.4892 
      5 CA         26.3010   -2.3799    1.1631 C.3       1 UNK         0.0835 
      6 C6         27.0802   -1.0876    0.7588 C.3       12 UNK        -0.0855 
      7 S7         27.5453   -0.8889   -1.0010 S.3       12 UNK        -0.2931 
      8 C8         29.3478   -1.1430   -0.9494 C.3       12 UNK         0.0378 
      9 C9         29.9002   -1.4237   -2.3396 C.ar      12 UNK        -0.0802 
     10 C10        30.7844   -0.5343   -2.9600 C.ar      12 UNK        -0.0944 
     11 C11        31.2796   -0.8084   -4.2402 C.ar      12 UNK        -0.0787 
     12 C12        30.8880   -1.9785   -4.8981 C.ar      12 UNK        -0.0862 
     13 C13        30.0143   -2.8765   -4.2823 C.ar      12 UNK        -0.0733 
     14 C14        29.5270   -2.5939   -3.0055 C.ar      12 UNK        -0.0832 
     15 C15        29.6006   -4.1629   -4.9745 C.3       12 UNK         0.0240 
     16 S16        27.9493   -4.0108   -5.7178 S.3       12 UNK        -0.2522 
     17 C17        28.3258   -3.3147   -7.3657 C.3       12 UNK        -0.0967 
     18 CA         27.6035   -1.9822   -7.6929 C.3       5 UNK         0.0660 
     19 N          26.2092   -1.9778   -7.2417 N.am      5 UNK        -0.4015 
     20 C          25.2496   -1.1773   -7.7187 C.2       4 UNK         0.4946 
     21 O          25.4274   -0.3560   -8.6175 O.2       4 UNK        -0.5353 
     22 CA         23.8762   -1.2775   -7.0352 C.3       4 UNK         0.0277 
     23 CB         23.1380   -2.5544   -7.4680 C.3       4 UNK        -0.1981 
     24 N          23.9560   -1.2238   -5.5709 N.am      4 UNK        -0.4209 
     25 C          24.4565   -0.2008   -4.8676 C.2       3 UNK         0.4942 
     26 O          24.9460    0.7980   -5.3908 O.2       3 UNK        -0.5208 
     27 CA         24.4341   -0.2845   -3.3327 C.3       3 UNK         0.0250 
     28 CB         23.1088    0.2658   -2.7732 C.3       3 UNK        -0.1990 
     29 N          24.7516   -1.5974   -2.7558 N.am      3 UNK        -0.4232 
     30 C          24.0581   -2.7441   -2.8107 C.2       2 UNK         0.4993 
     31 O          23.0533   -2.9056   -3.5046 O.2       2 UNK        -0.5286 
     32 CA         24.5705   -3.9171   -1.9527 C.3       2 UNK         0.0209 
     33 CB         25.2919   -4.9489   -2.8345 C.3       2 UNK        -0.1931 
     34 N          25.4704   -3.5163   -0.8659 N.am      2 UNK        -0.4546 
     35 C          25.1541   -2.7650    0.1966 C.2       1 UNK         0.5154 
     36 O          24.0095   -2.3745    0.4313 O.2       1 UNK        -0.5181 
     37 C          28.3935   -0.7341   -7.2413 C.2       5 UNK         0.5014 
     38 O          29.3649   -0.3698   -7.9090 O.2       5 UNK        -0.5248 
     39 N          27.9533   -0.0717   -6.1610 N.am      6 UNK        -0.4434 
     40 CA         28.4826    1.2219   -5.7264 C.3       6 UNK         0.0363 
     41 CB         28.0889    1.5005   -4.2664 C.3       6 UNK        -0.1936 
     42 C          28.0045    2.3480   -6.6551 C.2       6 UNK         0.5081 
     43 O          28.8246    3.1439   -7.1095 O.2       6 UNK        -0.5248 
     44 N          26.6990    2.3647   -6.9625 N.am      7 UNK        -0.4718 
     45 CA         26.0596    3.3000   -7.8933 C.3       7 UNK         0.0273 
     46 CB         24.5342    3.1224   -7.8314 C.3       7 UNK        -0.1935 
     47 C          26.5677    3.1540   -9.3375 C.2       7 UNK         0.5018 
     48 O          26.7668    4.1641  -10.0129 O.2       7 UNK        -0.5186 
     49 N          26.8100    1.9077   -9.7690 N.am      8 UNK        -0.4240 
     50 CA         27.4442    1.5743  -11.0486 C.3       8 UNK         0.0235 
     51 CB         27.1927    0.0912  -11.3652 C.3       8 UNK        -0.2000 
     52 C          28.9554    1.8789  -11.0932 C.2       8 UNK         0.4941 
     53 O          29.5306    1.8379  -12.1815 O.2       8 UNK        -0.5273 
     54 N          29.5649    2.1679   -9.9322 N.am      9 UNK        -0.4262 
     55 CA         30.9806    2.4745   -9.7123 C.3       9 UNK         0.0264 
     56 CB         31.3604    3.8187  -10.3695 C.3       9 UNK        -0.1955 
     57 C          31.9066    1.3144  -10.1186 C.2       9 UNK         0.5031 
     58 O          32.8560    1.5169  -10.8786 O.2       9 UNK        -0.5390 
     59 N          31.6165    0.1126   -9.5980 N.am      10 UNK        -0.4204 
     60 CA         32.4277   -1.0923   -9.8092 C.3       10 UNK         0.0237 
     61 CB         31.6397   -2.3239   -9.3369 C.3       10 UNK        -0.1985 
     62 C          33.8014   -1.0353   -9.1124 C.2       10 UNK         0.4970 
     63 O          34.7331   -1.7018   -9.5646 O.2       10 UNK        -0.4914 
     64 N          33.8984   -0.2533   -8.0300 N.am      11 UNK        -0.4285 
     65 CA         35.1343    0.0206   -7.2862 C.3       11 UNK         0.1007 
     66 C          36.1113    0.9047   -8.1061 C.2       11 UNK         0.5703 
     67 N          37.3909    0.5583   -8.1375 N.am      11 UNK        -0.7361 
     68 O          35.7253    1.9251   -8.6728 O.2       11 UNK        -0.4986 
     69 C69        34.8291    0.6716   -5.9121 C.3       12 UNK        -0.0947 
     70 S70        33.9486   -0.4662   -4.7944 S.3       12 UNK        -0.2240 
     71 C71        32.2427    0.1487   -4.9209 C.3       12 UNK         0.0194 
     72 H72        28.5719   -5.3026    2.7090 H         1 UNK         0.0906 
     73 H73        28.5052   -6.3358    1.2795 H         1 UNK         0.0906 
     74 H74        29.8311   -5.1875    1.4781 H         1 UNK         0.0906 
     75 H75        27.1183   -3.6703    2.5884 H         1 UNK         0.3140 
     76 H76        25.7830   -2.1190    2.0882 H         1 UNK         0.1085 
     77 H77        27.9672   -0.9753    1.3842 H         1 UNK         0.0836 
     78 H78        26.4595   -0.2231    1.0008 H         1 UNK         0.0836 
     79 H79        29.8202   -0.2633   -0.5099 H         1 UNK         0.0731 
     80 H80        29.5873   -1.9831   -0.2971 H         1 UNK         0.0731 
     81 H81        31.0849    0.3707   -2.4500 H         1 UNK         0.1312 
     82 H82        31.2739   -2.1918   -5.8847 H         1 UNK         0.1406 
     83 H83        28.8441   -3.2846   -2.5315 H         1 UNK         0.1631 
     84 H84        30.3325   -4.4598   -5.7271 H         1 UNK         0.0717 
     85 H85        29.5775   -4.9724   -4.2432 H         1 UNK         0.0717 
     86 H86        28.0165   -4.0659   -8.0942 H         1 UNK         0.0934 
     87 H87        29.4035   -3.2213   -7.5027 H         1 UNK         0.0934 
     88 H88        27.5758   -1.9164   -8.7817 H         1 UNK         0.0739 
     89 H89        25.9881   -2.6237   -6.4970 H         1 UNK         0.3093 
     90 H90        23.2878   -0.4175   -7.3619 H         1 UNK         0.0818 
     91 H91        22.1216   -2.5753   -7.0743 H         1 UNK         0.0819 
     92 H92        23.0641   -2.6136   -8.5549 H         1 UNK         0.0819 
     93 H93        23.6469   -3.4560   -7.1247 H         1 UNK         0.0819 
     94 H94        23.5454   -1.9905   -5.0417 H         1 UNK         0.3041 
     95 H95        25.2282    0.3762   -2.9813 H         1 UNK         0.0784 
     96 H96        23.1221    0.2951   -1.6835 H         1 UNK         0.0793 
     97 H97        22.9316    1.2837   -3.1234 H         1 UNK         0.0793 
     98 H98        22.2537   -0.3364   -3.0818 H         1 UNK         0.0793 
     99 H99        25.5895   -1.6101   -2.1860 H         1 UNK         0.3024 
    100 H100       23.6945   -4.3912   -1.5048 H         1 UNK         0.1171 
    101 H101       24.6559   -5.2790   -3.6573 H         1 UNK         0.0786 
    102 H102       25.5669   -5.8353   -2.2626 H         1 UNK         0.0786 
    103 H103       26.2031   -4.5367   -3.2691 H         1 UNK         0.0786 
    104 H104       26.4469   -3.8022   -0.9352 H         1 UNK         0.2977 
    105 H105       27.1328   -0.4121   -5.6833 H         1 UNK         0.3127 
    106 H106       29.5721    1.1783   -5.7771 H         1 UNK         0.0770 
    107 H107       28.6385    2.3586   -3.8784 H         1 UNK         0.0814 
    108 H108       28.3150    0.6522   -3.6225 H         1 UNK         0.0814 
    109 H109       27.0286    1.7245   -4.1576 H         1 UNK         0.0814 
    110 H110       26.0836    1.6954   -6.5020 H         1 UNK         0.2983 
    111 H111       26.3007    4.3122   -7.5615 H         1 UNK         0.0947 
    112 H112       24.1556    3.3030   -6.8252 H         1 UNK         0.0806 
    113 H113       24.2332    2.1157   -8.1238 H         1 UNK         0.0806 
    114 H114       24.0308    3.8226   -8.4993 H         1 UNK         0.0806 
    115 H115       26.5183    1.1275   -9.1844 H         1 UNK         0.3000 
    116 H116       26.9693    2.1744  -11.8277 H         1 UNK         0.0850 
    117 H117       27.5713   -0.1669  -12.3551 H         1 UNK         0.0810 
    118 H118       26.1286   -0.1454  -11.3537 H         1 UNK         0.0810 
    119 H119       27.6914   -0.5596  -10.6478 H         1 UNK         0.0810 
    120 H120       28.9964    2.1808   -9.0943 H         1 UNK         0.3040 
    121 H121       31.1011    2.5947   -8.6346 H         1 UNK         0.0766 
    122 H122       30.7087    4.6231  -10.0283 H         1 UNK         0.0812 
    123 H123       32.3832    4.1004  -10.1166 H         1 UNK         0.0812 
    124 H124       31.2961    3.7727  -11.4571 H         1 UNK         0.0812 
    125 H125       30.7929    0.0135   -9.0032 H         1 UNK         0.3205 
    126 H126       32.6068   -1.1928  -10.8818 H         1 UNK         0.0754 
    127 H127       32.1871   -3.2434   -9.5486 H         1 UNK         0.0769 
    128 H128       30.6745   -2.3965   -9.8388 H         1 UNK         0.0769 
    129 H129       31.4596   -2.2915   -8.2628 H         1 UNK         0.0769 
    130 H130       33.0887    0.2772   -7.7535 H         1 UNK         0.2981 
    131 H131       35.6229   -0.9388   -7.1025 H         1 UNK         0.0541 
    132 H132       38.0410    1.1322   -8.6514 H         1 UNK         0.3459 
    133 H133       37.7190   -0.2702   -7.6657 H         1 UNK         0.3459 
    134 H134       34.2591    1.5951   -6.0316 H         1 UNK         0.0612 
    135 H135       35.7575    0.9516   -5.4106 H         1 UNK         0.0612 
    136 H136       32.1804    1.1430   -4.4761 H         1 UNK         0.0624 
    137 H137       31.9628    0.2568   -5.9694 H         1 UNK         0.0624 
@<TRIPOS>BOND
     1    1    2 1    
     2    1   72 1    
     3    1   73 1    
     4    1   74 1    
     5    2    3 2    
     6    2    4 am   BACKBONE|DICT|INTERRES
     7    4    5 1    
     8    4   75 1    
     9    5    6 1    
    10    5   35 1    
    11    5   76 1    
    12    6    7 1    
    13    6   77 1    
    14    6   78 1    
    15    7    8 1    
    16    8    9 1    
    17    8   79 1    
    18    8   80 1    
    19    9   10 ar   
    20    9   14 ar   
    21   10   11 ar   
    22   10   81 1    
    23   11   12 ar   
    24   11   71 1    
    25   12   13 ar   
    26   12   82 1    
    27   13   14 ar   
    28   13   15 1    
    29   14   83 1    
    30   15   16 1    
    31   15   84 1    
    32   15   85 1    
    33   16   17 1    
    34   17   18 1    
    35   17   86 1    
    36   17   87 1    
    37   18   19 1    
    38   18   37 1    
    39   18   88 1    
    40   19   20 am   BACKBONE|DICT|INTERRES
    41   19   89 1    
    42   20   21 2    
    43   20   22 1    
    44   22   23 1    
    45   22   24 1    
    46   22   90 1    
    47   23   91 1    
    48   23   92 1    
    49   23   93 1    
    50   24   25 am   BACKBONE|DICT|INTERRES
    51   24   94 1    
    52   25   26 2    
    53   25   27 1    
    54   27   28 1    
    55   27   29 1    
    56   27   95 1    
    57   28   96 1    
    58   28   97 1    
    59   28   98 1    
    60   29   30 am   BACKBONE|DICT|INTERRES
    61   29   99 1    
    62   30   31 2    
    63   30   32 1    
    64   32   33 1    
    65   32   34 1    
    66   32  100 1    
    67   33  101 1    
    68   33  102 1    
    69   33  103 1    
    70   34   35 am   BACKBONE|DICT|INTERRES
    71   34  104 1    
    72   35   36 2    
    73   37   38 2    
    74   37   39 am   BACKBONE|DICT|INTERRES
    75   39   40 1    
    76   39  105 1    
    77   40   41 1    
    78   40   42 1    
    79   40  106 1    
    80   41  107 1    
    81   41  108 1    
    82   41  109 1    
    83   42   43 2    
    84   42   44 am   BACKBONE|DICT|INTERRES
    85   44   45 1    
    86   44  110 1    
    87   45   46 1    
    88   45   47 1    
    89   45  111 1    
    90   46  112 1    
    91   46  113 1    
    92   46  114 1    
    93   47   48 2    
    94   47   49 am   BACKBONE|DICT|INTERRES
    95   49   50 1    
    96   49  115 1    
    97   50   51 1    
    98   50   52 1    
    99   50  116 1    
   100   51  117 1    
   101   51  118 1    
   102   51  119 1    
   103   52   53 2    
   104   52   54 am   BACKBONE|DICT|INTERRES
   105   54   55 1    
   106   54  120 1    
   107   55   56 1    
   108   55   57 1    
   109   55  121 1    
   110   56  122 1    
   111   56  123 1    
   112   56  124 1    
   113   57   58 2    
   114   57   59 am   BACKBONE|DICT|INTERRES
   115   59   60 1    
   116   59  125 1    
   117   60   61 1    
   118   60   62 1    
   119   60  126 1    
   120   61  127 1    
   121   61  128 1    
   122   61  129 1    
   123   62   63 2    
   124   62   64 am   BACKBONE|DICT|INTERRES
   125   64   65 1    
   126   64  130 1    
   127   65   66 1    
   128   65   69 1    
   129   65  131 1    
   130   66   67 am   BACKBONE|DICT|INTERRES
   131   66   68 2    
   132   67  132 1    
   133   67  133 1    
   134   69   70 1    
   135   69  134 1    
   136   69  135 1    
   137   70   71 1    
   138   71  136 1    
   139   71  137 1    
@<TRIPOS>SUBSTRUCTURE
     1 UNK         1 GROUP             0       ****    0 ROOT    
