@<TRIPOS>MOLECULE
3R137
137   139    1
SMALL
USER_CHARGES


@<TRIPOS>ATOM
      1 CA         25.6377   -5.2102    0.2186 C.3       0 UNK        -0.2020 
      2 C          25.9074   -4.3372   -0.9969 C.2       0 UNK         0.4855 
      3 O          25.4031   -3.2166   -1.0679 O.2       0 UNK        -0.5197 
      4 N          26.6825   -4.8507   -1.9632 N.am      1 UNK        -0.4892 
      5 CA         27.1366   -4.1513   -3.1778 C.3       1 UNK         0.0835 
      6 C6         28.1413   -4.9999   -4.0032 C.3       12 UNK        -0.0855 
      7 S7         29.4677   -5.7573   -2.9948 S.3       12 UNK        -0.2931 
      8 C8         30.9797   -4.9500   -3.6330 C.3       12 UNK         0.0378 
      9 C9         31.1830   -3.4842   -3.2411 C.ar      12 UNK        -0.0802 
     10 C10        32.2064   -2.7671   -3.8702 C.ar      12 UNK        -0.0944 
     11 C11        32.4440   -1.4251   -3.5578 C.ar      12 UNK        -0.0787 
     12 C12        31.6464   -0.7943   -2.6010 C.ar      12 UNK        -0.0862 
     13 C13        30.6066   -1.4884   -1.9751 C.ar      12 UNK        -0.0733 
     14 C14        30.4011   -2.8367   -2.2755 C.ar      12 UNK        -0.0832 
     15 C15        29.6878   -0.7820   -0.9879 C.3       12 UNK         0.0240 
     16 S16        28.0741   -0.3693   -1.7367 S.3       12 UNK        -0.2522 
     17 C17        28.5572    0.8253   -3.0274 C.3       12 UNK        -0.0967 
     18 CA         27.9442    0.4799   -4.4111 C.3       5 UNK         0.0660 
     19 N          26.5402    0.9134   -4.4685 N.am      5 UNK        -0.4015 
     20 C          25.7578    1.1677   -5.5285 C.2       4 UNK         0.4946 
     21 O          26.1450    1.1702   -6.6982 O.2       4 UNK        -0.5353 
     22 CA         24.2801    1.4869   -5.2222 C.3       4 UNK         0.0277 
     23 CB         23.4319    1.6272   -6.5005 C.3       4 UNK        -0.1981 
     24 N          23.6642    0.4749   -4.3609 N.am      4 UNK        -0.4209 
     25 C          23.8108    0.3674   -3.0357 C.2       3 UNK         0.4942 
     26 O          24.4940    1.1463   -2.3700 O.2       3 UNK        -0.5208 
     27 CA         23.1215   -0.8190   -2.3389 C.3       3 UNK         0.0250 
     28 CB         21.6120   -0.5675   -2.1548 C.3       3 UNK        -0.1990 
     29 N          23.3916   -2.1189   -2.9700 N.am      3 UNK        -0.4232 
     30 C          23.0160   -2.5672   -4.1800 C.2       2 UNK         0.4993 
     31 O          22.3060   -1.9217   -4.9539 O.2       2 UNK        -0.5286 
     32 CA         23.5358   -3.9575   -4.6073 C.3       2 UNK         0.0209 
     33 CB         23.6073   -4.1162   -6.1408 C.3       2 UNK        -0.1931 
     34 N          24.8188   -4.3181   -3.9875 N.am      2 UNK        -0.4546 
     35 C          25.9849   -3.6562   -4.0780 C.2       1 UNK         0.5154 
     36 O          26.1649   -2.6740   -4.7950 O.2       1 UNK        -0.5181 
     37 C          28.8319    1.0300   -5.5438 C.2       5 UNK         0.5014 
     38 O          29.3239    0.2575   -6.3688 O.2       5 UNK        -0.5248 
     39 N          28.9962    2.3600   -5.5640 N.am      6 UNK        -0.4434 
     40 CA         29.8756    3.0841   -6.4826 C.3       6 UNK         0.0363 
     41 CB         29.9041    4.5683   -6.0845 C.3       6 UNK        -0.1936 
     42 C          29.5128    2.9365   -7.9695 C.2       6 UNK         0.5081 
     43 O          30.4096    3.0268   -8.8081 O.2       6 UNK        -0.5248 
     44 N          28.2269    2.7161   -8.2697 N.am      7 UNK        -0.4718 
     45 CA         27.7264    2.4995   -9.6251 C.3       7 UNK         0.0273 
     46 CB         26.3081    3.0814   -9.7473 C.3       7 UNK        -0.1935 
     47 C          27.7350    1.0079   -9.9825 C.2       7 UNK         0.5018 
     48 O          28.2010    0.6501  -11.0638 O.2       7 UNK        -0.5186 
     49 N          27.2259    0.1688   -9.0701 N.am      8 UNK        -0.4240 
     50 CA         27.0535   -1.2728   -9.2526 C.3       8 UNK         0.0235 
     51 CB         26.2051   -1.8336   -8.1027 C.3       8 UNK        -0.2000 
     52 C          28.3792   -2.0374   -9.3685 C.2       8 UNK         0.4941 
     53 O          28.5101   -2.8781  -10.2590 O.2       8 UNK        -0.5273 
     54 N          29.3389   -1.7261   -8.4868 N.am      9 UNK        -0.4262 
     55 CA         30.6828   -2.3111   -8.5035 C.3       9 UNK         0.0264 
     56 CB         31.1608   -2.5043   -7.0569 C.3       9 UNK        -0.1955 
     57 C          31.6839   -1.4656   -9.3122 C.2       9 UNK         0.5031 
     58 O          32.8302   -1.8883   -9.4667 O.2       9 UNK        -0.5390 
     59 N          31.2466   -0.2936   -9.8008 N.am      10 UNK        -0.4204 
     60 CA         31.9946    0.6939  -10.5926 C.3       10 UNK         0.0237 
     61 CB         32.4104    0.1026  -11.9567 C.3       10 UNK        -0.1985 
     62 C          33.1793    1.3480   -9.8484 C.2       10 UNK         0.4970 
     63 O          34.0383    1.9509  -10.4946 O.2       10 UNK        -0.4914 
     64 N          33.2074    1.2336   -8.5147 N.am      11 UNK        -0.4285 
     65 CA         34.2319    1.8077   -7.6311 C.3       11 UNK         0.1007 
     66 C          34.0587    3.3225   -7.3164 C.2       11 UNK         0.5703 
     67 N          33.0104    3.9918   -7.7805 N.am      11 UNK        -0.7361 
     68 O          34.9125    3.9130   -6.6586 O.2       11 UNK        -0.4986 
     69 C69        34.4439    0.9398   -6.3605 C.3       12 UNK        -0.0947 
     70 S70        32.9194    0.5691   -5.4285 S.3       12 UNK        -0.2240 
     71 C71        33.5638   -0.6597   -4.2488 C.3       12 UNK         0.0194 
     72 H72        26.1376   -6.1761    0.1472 H         1 UNK         0.0906 
     73 H73        25.9900   -4.7122    1.1215 H         1 UNK         0.0906 
     74 H74        24.5678   -5.3879    0.3231 H         1 UNK         0.0906 
     75 H75        27.0760   -5.7741   -1.8405 H         1 UNK         0.3140 
     76 H76        27.6461   -3.2466   -2.8441 H         1 UNK         0.1085 
     77 H77        28.5889   -4.3883   -4.7897 H         1 UNK         0.0836 
     78 H78        27.6213   -5.8123   -4.5149 H         1 UNK         0.0836 
     79 H79        31.8385   -5.5169   -3.2712 H         1 UNK         0.0731 
     80 H80        30.9904   -5.0420   -4.7203 H         1 UNK         0.0731 
     81 H81        32.8232   -3.2586   -4.6102 H         1 UNK         0.1312 
     82 H82        31.8245    0.2458   -2.3639 H         1 UNK         0.1406 
     83 H83        29.6178   -3.3668   -1.7551 H         1 UNK         0.1631 
     84 H84        30.1533    0.1287   -0.6080 H         1 UNK         0.0717 
     85 H85        29.5210   -1.4238   -0.1216 H         1 UNK         0.0717 
     86 H86        29.6441    0.8714   -3.0783 H         1 UNK         0.0934 
     87 H87        28.2503    1.8216   -2.7034 H         1 UNK         0.0934 
     88 H88        27.9412   -0.6051   -4.5327 H         1 UNK         0.0739 
     89 H89        26.0765    0.9536   -3.5663 H         1 UNK         0.3093 
     90 H90        24.2610    2.4470   -4.7023 H         1 UNK         0.0818 
     91 H91        22.3984    1.8824   -6.2659 H         1 UNK         0.0819 
     92 H92        23.8203    2.4174   -7.1444 H         1 UNK         0.0819 
     93 H93        23.4265    0.7041   -7.0819 H         1 UNK         0.0819 
     94 H94        23.1234   -0.2556   -4.8199 H         1 UNK         0.3041 
     95 H95        23.5617   -0.8893   -1.3426 H         1 UNK         0.0784 
     96 H96        21.4389    0.3506   -1.5918 H         1 UNK         0.0793 
     97 H97        21.0916   -0.4636   -3.1072 H         1 UNK         0.0793 
     98 H98        21.1404   -1.3800   -1.6022 H         1 UNK         0.0793 
     99 H99        24.0299   -2.7024   -2.4353 H         1 UNK         0.3024 
    100 H100       22.8016   -4.6745   -4.2360 H         1 UNK         0.1171 
    101 H101       23.9871   -5.0979   -6.4233 H         1 UNK         0.0786 
    102 H102       24.2522   -3.3628   -6.5916 H         1 UNK         0.0786 
    103 H103       22.6204   -4.0091   -6.5926 H         1 UNK         0.0786 
    104 H104       24.7928   -5.1060   -3.3546 H         1 UNK         0.2977 
    105 H105       28.5167    2.9141   -4.8697 H         1 UNK         0.3127 
    106 H106       30.8802    2.6764   -6.3560 H         1 UNK         0.0770 
    107 H107       28.9115    5.0180   -6.1319 H         1 UNK         0.0814 
    108 H108       30.5503    5.1416   -6.7504 H         1 UNK         0.0814 
    109 H109       30.2882    4.7010   -5.0730 H         1 UNK         0.0814 
    110 H110       27.5690    2.5684   -7.5131 H         1 UNK         0.2983 
    111 H111       28.3658    3.0207  -10.3418 H         1 UNK         0.0947 
    112 H112       25.9128    2.9359  -10.7535 H         1 UNK         0.0806 
    113 H113       26.3030    4.1533   -9.5493 H         1 UNK         0.0806 
    114 H114       25.6122    2.6100   -9.0521 H         1 UNK         0.0806 
    115 H115       26.8716    0.5574   -8.1954 H         1 UNK         0.3000 
    116 H116       26.5037   -1.4238  -10.1841 H         1 UNK         0.0850 
    117 H117       26.0666   -2.9107   -8.2042 H         1 UNK         0.0810 
    118 H118       25.2158   -1.3763   -8.0772 H         1 UNK         0.0810 
    119 H119       26.6782   -1.6525   -7.1371 H         1 UNK         0.0810 
    120 H120       29.1603   -1.0225   -7.7708 H         1 UNK         0.3040 
    121 H121       30.6506   -3.2972   -8.9715 H         1 UNK         0.0766 
    122 H122       32.1481   -2.9665   -7.0281 H         1 UNK         0.0812 
    123 H123       30.4827   -3.1495   -6.4984 H         1 UNK         0.0812 
    124 H124       31.2291   -1.5568   -6.5243 H         1 UNK         0.0812 
    125 H125       30.2811   -0.0556   -9.6199 H         1 UNK         0.3205 
    126 H126       31.2907    1.5019  -10.7958 H         1 UNK         0.0754 
    127 H127       32.8210    0.8733  -12.6103 H         1 UNK         0.0769 
    128 H128       31.5569   -0.3359  -12.4742 H         1 UNK         0.0769 
    129 H129       33.1720   -0.6702  -11.8489 H         1 UNK         0.0769 
    130 H130       32.4569    0.7431   -8.0520 H         1 UNK         0.2981 
    131 H131       35.1764    1.7614   -8.1765 H         1 UNK         0.0541 
    132 H132       32.2826    3.5280   -8.3126 H         1 UNK         0.3459 
    133 H133       32.9377    4.9763   -7.5830 H         1 UNK         0.3459 
    134 H134       35.1689    1.3981   -5.6854 H         1 UNK         0.0612 
    135 H135       34.8852   -0.0115   -6.6622 H         1 UNK         0.0612 
    136 H136       34.2226   -1.3534   -4.7736 H         1 UNK         0.0624 
    137 H137       34.1784   -0.1534   -3.5031 H         1 UNK         0.0624 
@<TRIPOS>BOND
     1    1    2 1    
     2    1   72 1    
     3    1   73 1    
     4    1   74 1    
     5    2    3 2    
     6    2    4 am   BACKBONE|DICT|INTERRES
     7    4    5 1    
     8    4   75 1    
     9    5    6 1    
    10    5   35 1    
    11    5   76 1    
    12    6    7 1    
    13    6   77 1    
    14    6   78 1    
    15    7    8 1    
    16    8    9 1    
    17    8   79 1    
    18    8   80 1    
    19    9   10 ar   
    20    9   14 ar   
    21   10   11 ar   
    22   10   81 1    
    23   11   12 ar   
    24   11   71 1    
    25   12   13 ar   
    26   12   82 1    
    27   13   14 ar   
    28   13   15 1    
    29   14   83 1    
    30   15   16 1    
    31   15   84 1    
    32   15   85 1    
    33   16   17 1    
    34   17   18 1    
    35   17   86 1    
    36   17   87 1    
    37   18   19 1    
    38   18   37 1    
    39   18   88 1    
    40   19   20 am   BACKBONE|DICT|INTERRES
    41   19   89 1    
    42   20   21 2    
    43   20   22 1    
    44   22   23 1    
    45   22   24 1    
    46   22   90 1    
    47   23   91 1    
    48   23   92 1    
    49   23   93 1    
    50   24   25 am   BACKBONE|DICT|INTERRES
    51   24   94 1    
    52   25   26 2    
    53   25   27 1    
    54   27   28 1    
    55   27   29 1    
    56   27   95 1    
    57   28   96 1    
    58   28   97 1    
    59   28   98 1    
    60   29   30 am   BACKBONE|DICT|INTERRES
    61   29   99 1    
    62   30   31 2    
    63   30   32 1    
    64   32   33 1    
    65   32   34 1    
    66   32  100 1    
    67   33  101 1    
    68   33  102 1    
    69   33  103 1    
    70   34   35 am   BACKBONE|DICT|INTERRES
    71   34  104 1    
    72   35   36 2    
    73   37   38 2    
    74   37   39 am   BACKBONE|DICT|INTERRES
    75   39   40 1    
    76   39  105 1    
    77   40   41 1    
    78   40   42 1    
    79   40  106 1    
    80   41  107 1    
    81   41  108 1    
    82   41  109 1    
    83   42   43 2    
    84   42   44 am   BACKBONE|DICT|INTERRES
    85   44   45 1    
    86   44  110 1    
    87   45   46 1    
    88   45   47 1    
    89   45  111 1    
    90   46  112 1    
    91   46  113 1    
    92   46  114 1    
    93   47   48 2    
    94   47   49 am   BACKBONE|DICT|INTERRES
    95   49   50 1    
    96   49  115 1    
    97   50   51 1    
    98   50   52 1    
    99   50  116 1    
   100   51  117 1    
   101   51  118 1    
   102   51  119 1    
   103   52   53 2    
   104   52   54 am   BACKBONE|DICT|INTERRES
   105   54   55 1    
   106   54  120 1    
   107   55   56 1    
   108   55   57 1    
   109   55  121 1    
   110   56  122 1    
   111   56  123 1    
   112   56  124 1    
   113   57   58 2    
   114   57   59 am   BACKBONE|DICT|INTERRES
   115   59   60 1    
   116   59  125 1    
   117   60   61 1    
   118   60   62 1    
   119   60  126 1    
   120   61  127 1    
   121   61  128 1    
   122   61  129 1    
   123   62   63 2    
   124   62   64 am   BACKBONE|DICT|INTERRES
   125   64   65 1    
   126   64  130 1    
   127   65   66 1    
   128   65   69 1    
   129   65  131 1    
   130   66   67 am   BACKBONE|DICT|INTERRES
   131   66   68 2    
   132   67  132 1    
   133   67  133 1    
   134   69   70 1    
   135   69  134 1    
   136   69  135 1    
   137   70   71 1    
   138   71  136 1    
   139   71  137 1    
@<TRIPOS>SUBSTRUCTURE
     1 UNK         1 GROUP             0       ****    0 ROOT    
