@<TRIPOS>MOLECULE
3R137
137   139    1
SMALL
USER_CHARGES


@<TRIPOS>ATOM
      1 CA         27.0480   -0.4202    1.0412 C.3       0 UNK        -0.2020 
      2 C          26.8864   -0.8850   -0.3973 C.2       0 UNK         0.4855 
      3 O          27.0975   -0.1014   -1.3226 O.2       0 UNK        -0.5197 
      4 N          26.5109   -2.1542   -0.5998 N.am      1 UNK        -0.4892 
      5 CA         26.3371   -2.8024   -1.9065 C.3       1 UNK         0.0835 
      6 C6         26.4228   -4.3515   -1.8008 C.3       12 UNK        -0.0855 
      7 S7         27.9019   -4.9796   -0.9303 S.3       12 UNK        -0.2931 
      8 C8         29.0854   -5.2898   -2.2920 C.3       12 UNK         0.0378 
      9 C9         30.1407   -4.2024   -2.5220 C.ar      12 UNK        -0.0802 
     10 C10        31.1707   -4.4599   -3.4338 C.ar      12 UNK        -0.0944 
     11 C11        32.1938   -3.5299   -3.6479 C.ar      12 UNK        -0.0787 
     12 C12        32.1871   -2.3264   -2.9394 C.ar      12 UNK        -0.0862 
     13 C13        31.1433   -2.0325   -2.0579 C.ar      12 UNK        -0.0733 
     14 C14        30.1330   -2.9748   -1.8463 C.ar      12 UNK        -0.0832 
     15 C15        31.0821   -0.6841   -1.3519 C.3       12 UNK         0.0240 
     16 S16        30.8638    0.7048   -2.5152 S.3       12 UNK        -0.2522 
     17 C17        29.5104    0.1162   -3.5954 C.3       12 UNK        -0.0967 
     18 CA         30.0390   -0.3647   -4.9806 C.3       5 UNK         0.0660 
     19 N          29.2329   -1.4466   -5.5480 N.am      5 UNK        -0.4015 
     20 C          27.9538   -1.3435   -5.9250 C.2       4 UNK         0.4946 
     21 O          27.3019   -0.2954   -5.8533 O.2       4 UNK        -0.5353 
     22 CA         27.2793   -2.6209   -6.4514 C.3       4 UNK         0.0277 
     23 CB         27.7135   -3.8926   -5.6928 C.3       4 UNK        -0.1981 
     24 N          25.8463   -2.4106   -6.3169 N.am      4 UNK        -0.4209 
     25 C          24.8470   -3.0581   -6.9231 C.2       3 UNK         0.4942 
     26 O          25.0160   -3.9885   -7.7123 O.2       3 UNK        -0.5208 
     27 CA         23.4183   -2.5878   -6.5716 C.3       3 UNK         0.0250 
     28 CB         22.4037   -3.7448   -6.6110 C.3       3 UNK        -0.1990 
     29 N          23.3834   -1.9752   -5.2406 N.am      3 UNK        -0.4232 
     30 C          23.5411   -0.6769   -4.9609 C.2       2 UNK         0.4993 
     31 O          23.5743    0.2078   -5.8144 O.2       2 UNK        -0.5286 
     32 CA         23.7741   -0.3138   -3.4832 C.3       2 UNK         0.0209 
     33 CB         22.4784   -0.4452   -2.6588 C.3       2 UNK        -0.1931 
     34 N          24.8943   -1.0385   -2.8547 N.am      2 UNK        -0.4546 
     35 C          25.0256   -2.3489   -2.5954 C.2       1 UNK         0.5154 
     36 O          24.1585   -3.1814   -2.8701 O.2       1 UNK        -0.5181 
     37 C          30.2665    0.7778   -5.9943 C.2       5 UNK         0.5014 
     38 O          30.1681    0.5619   -7.2062 O.2       5 UNK        -0.5248 
     39 N          30.5638    1.9777   -5.4849 N.am      6 UNK        -0.4434 
     40 CA         30.5814    3.2239   -6.2503 C.3       6 UNK         0.0363 
     41 CB         31.3514    4.2912   -5.4575 C.3       6 UNK        -0.1936 
     42 C          29.1635    3.7206   -6.5947 C.2       6 UNK         0.5081 
     43 O          29.0219    4.5130   -7.5239 O.2       6 UNK        -0.5248 
     44 N          28.1443    3.2395   -5.8635 N.am      7 UNK        -0.4718 
     45 CA         26.7265    3.5597   -6.0530 C.3       7 UNK         0.0273 
     46 CB         25.9002    2.9379   -4.9141 C.3       7 UNK        -0.1935 
     47 C          26.1959    3.1154   -7.4251 C.2       7 UNK         0.5018 
     48 O          25.6007    3.9277   -8.1340 O.2       7 UNK        -0.5186 
     49 N          26.4640    1.8544   -7.7916 N.am      8 UNK        -0.4240 
     50 CA         26.1681    1.3093   -9.1215 C.3       8 UNK         0.0235 
     51 CB         25.8181   -0.1794   -8.9853 C.3       8 UNK        -0.2000 
     52 C          27.3276    1.5013  -10.1176 C.2       8 UNK         0.4941 
     53 O          27.1864    1.1037  -11.2746 O.2       8 UNK        -0.5273 
     54 N          28.4503    2.0741   -9.6542 N.am      9 UNK        -0.4262 
     55 CA         29.7220    2.2644  -10.3646 C.3       9 UNK         0.0264 
     56 CB         29.5631    3.2647  -11.5291 C.3       9 UNK        -0.1955 
     57 C          30.3692    0.9312  -10.7924 C.2       9 UNK         0.5031 
     58 O          30.9632    0.8465  -11.8690 O.2       9 UNK        -0.5390 
     59 N          30.2427   -0.0848   -9.9303 N.am      10 UNK        -0.4204 
     60 CA         30.8072   -1.4203  -10.1139 C.3       10 UNK         0.0237 
     61 CB         29.8954   -2.4530   -9.4307 C.3       10 UNK        -0.1985 
     62 C          32.2308   -1.5077   -9.5467 C.2       10 UNK         0.4970 
     63 O          33.0862   -2.1371  -10.1703 O.2       10 UNK        -0.4914 
     64 N          32.4504   -0.8777   -8.3850 N.am      11 UNK        -0.4285 
     65 CA         33.7323   -0.8586   -7.6575 C.3       11 UNK         0.1007 
     66 C          34.3551    0.5649   -7.5686 C.2       11 UNK         0.5703 
     67 N          33.7937    1.5794   -8.2169 N.am      11 UNK        -0.7361 
     68 O          35.3768    0.7530   -6.9126 O.2       11 UNK        -0.4986 
     69 C69        33.6240   -1.5238   -6.2554 C.3       12 UNK        -0.0947 
     70 S70        32.9141   -3.2070   -6.3033 S.3       12 UNK        -0.2240 
     71 C71        33.3077   -3.8329   -4.6394 C.3       12 UNK         0.0194 
     72 H72        26.8522   -1.2212    1.7538 H         1 UNK         0.0906 
     73 H73        28.0634   -0.0604    1.2054 H         1 UNK         0.0906 
     74 H74        26.3588    0.3975    1.2499 H         1 UNK         0.0906 
     75 H75        26.3386   -2.7509    0.1975 H         1 UNK         0.3140 
     76 H76        27.1538   -2.4758   -2.5536 H         1 UNK         0.1085 
     77 H77        25.5579   -4.7341   -1.2549 H         1 UNK         0.0836 
     78 H78        26.3656   -4.8093   -2.7898 H         1 UNK         0.0836 
     79 H79        28.5491   -5.4820   -3.2211 H         1 UNK         0.0731 
     80 H80        29.6082   -6.2176   -2.0545 H         1 UNK         0.0731 
     81 H81        31.1845   -5.3980   -3.9726 H         1 UNK         0.1312 
     82 H82        32.9722   -1.6004   -3.1014 H         1 UNK         0.1406 
     83 H83        29.3428   -2.7378   -1.1496 H         1 UNK         0.1631 
     84 H84        32.0003   -0.5314   -0.7832 H         1 UNK         0.0717 
     85 H85        30.2652   -0.6606   -0.6288 H         1 UNK         0.0717 
     86 H86        28.9970   -0.6992   -3.0866 H         1 UNK         0.0934 
     87 H87        28.7492    0.8923   -3.6935 H         1 UNK         0.0934 
     88 H88        31.0128   -0.8189   -4.8296 H         1 UNK         0.0739 
     89 H89        29.7058   -2.3323   -5.6534 H         1 UNK         0.3093 
     90 H90        27.5207   -2.7264   -7.5101 H         1 UNK         0.0818 
     91 H91        27.1294   -4.7605   -5.9991 H         1 UNK         0.0819 
     92 H92        28.7590   -4.1373   -5.8833 H         1 UNK         0.0819 
     93 H93        27.5913   -3.7743   -4.6174 H         1 UNK         0.0819 
     94 H94        25.6210   -1.5830   -5.7778 H         1 UNK         0.3041 
     95 H95        23.1253   -1.8515   -7.3227 H         1 UNK         0.0784 
     96 H96        22.3497   -4.1877   -7.6064 H         1 UNK         0.0793 
     97 H97        22.6723   -4.5386   -5.9127 H         1 UNK         0.0793 
     98 H98        21.4009   -3.4004   -6.3577 H         1 UNK         0.0793 
     99 H99        23.4437   -2.6150   -4.4496 H         1 UNK         0.3024 
    100 H100       24.0599    0.7396   -3.4675 H         1 UNK         0.1171 
    101 H101       22.6277   -0.1067   -1.6334 H         1 UNK         0.0786 
    102 H102       21.6821    0.1643   -3.0880 H         1 UNK         0.0786 
    103 H103       22.1141   -1.4721   -2.6215 H         1 UNK         0.0786 
    104 H104       25.6679   -0.4537   -2.5435 H         1 UNK         0.2977 
    105 H105       30.6826    2.0516   -4.4818 H         1 UNK         0.3127 
    106 H106       31.1099    3.0486   -7.1899 H         1 UNK         0.0770 
    107 H107       30.8740    4.5091   -4.5013 H         1 UNK         0.0814 
    108 H108       31.4060    5.2271   -6.0156 H         1 UNK         0.0814 
    109 H109       32.3755    3.9746   -5.2585 H         1 UNK         0.0814 
    110 H110       28.3577    2.5822   -5.1293 H         1 UNK         0.2983 
    111 H111       26.6223    4.6456   -5.9965 H         1 UNK         0.0947 
    112 H112       24.8389    3.1587   -5.0370 H         1 UNK         0.0806 
    113 H113       26.2020    3.3307   -3.9431 H         1 UNK         0.0806 
    114 H114       26.0020    1.8525   -4.8827 H         1 UNK         0.0806 
    115 H115       26.9045    1.2280   -7.1225 H         1 UNK         0.3000 
    116 H116       25.2964    1.8186   -9.5381 H         1 UNK         0.0850 
    117 H117       25.4824   -0.5933   -9.9369 H         1 UNK         0.0810 
    118 H118       25.0136   -0.3276   -8.2656 H         1 UNK         0.0810 
    119 H119       26.6791   -0.7636   -8.6637 H         1 UNK         0.0810 
    120 H120       28.4414    2.3821   -8.6921 H         1 UNK         0.3040 
    121 H121       30.4063    2.7118   -9.6426 H         1 UNK         0.0766 
    122 H122       28.9366    2.8637  -12.3264 H         1 UNK         0.0812 
    123 H123       30.5306    3.5091  -11.9691 H         1 UNK         0.0812 
    124 H124       29.1176    4.1995  -11.1890 H         1 UNK         0.0812 
    125 H125       29.8304    0.1146   -9.0225 H         1 UNK         0.3205 
    126 H126       30.8483   -1.6540  -11.1801 H         1 UNK         0.0754 
    127 H127       30.2674   -3.4660   -9.5898 H         1 UNK         0.0769 
    128 H128       28.8815   -2.4124   -9.8296 H         1 UNK         0.0769 
    129 H129       29.8417   -2.2923   -8.3539 H         1 UNK         0.0769 
    130 H130       31.6858   -0.3714   -7.9514 H         1 UNK         0.2981 
    131 H131       34.4670   -1.4370   -8.2196 H         1 UNK         0.0541 
    132 H132       32.9851    1.4312   -8.7961 H         1 UNK         0.3459 
    133 H133       34.2162    2.4923   -8.1578 H         1 UNK         0.3459 
    134 H134       33.0381   -0.9029   -5.5814 H         1 UNK         0.0612 
    135 H135       34.6162   -1.5959   -5.8065 H         1 UNK         0.0612 
    136 H136       33.4595   -4.9114   -4.7034 H         1 UNK         0.0624 
    137 H137       34.2542   -3.4166   -4.2917 H         1 UNK         0.0624 
@<TRIPOS>BOND
     1    1    2 1    
     2    1   72 1    
     3    1   73 1    
     4    1   74 1    
     5    2    3 2    
     6    2    4 am   BACKBONE|DICT|INTERRES
     7    4    5 1    
     8    4   75 1    
     9    5    6 1    
    10    5   35 1    
    11    5   76 1    
    12    6    7 1    
    13    6   77 1    
    14    6   78 1    
    15    7    8 1    
    16    8    9 1    
    17    8   79 1    
    18    8   80 1    
    19    9   10 ar   
    20    9   14 ar   
    21   10   11 ar   
    22   10   81 1    
    23   11   12 ar   
    24   11   71 1    
    25   12   13 ar   
    26   12   82 1    
    27   13   14 ar   
    28   13   15 1    
    29   14   83 1    
    30   15   16 1    
    31   15   84 1    
    32   15   85 1    
    33   16   17 1    
    34   17   18 1    
    35   17   86 1    
    36   17   87 1    
    37   18   19 1    
    38   18   37 1    
    39   18   88 1    
    40   19   20 am   BACKBONE|DICT|INTERRES
    41   19   89 1    
    42   20   21 2    
    43   20   22 1    
    44   22   23 1    
    45   22   24 1    
    46   22   90 1    
    47   23   91 1    
    48   23   92 1    
    49   23   93 1    
    50   24   25 am   BACKBONE|DICT|INTERRES
    51   24   94 1    
    52   25   26 2    
    53   25   27 1    
    54   27   28 1    
    55   27   29 1    
    56   27   95 1    
    57   28   96 1    
    58   28   97 1    
    59   28   98 1    
    60   29   30 am   BACKBONE|DICT|INTERRES
    61   29   99 1    
    62   30   31 2    
    63   30   32 1    
    64   32   33 1    
    65   32   34 1    
    66   32  100 1    
    67   33  101 1    
    68   33  102 1    
    69   33  103 1    
    70   34   35 am   BACKBONE|DICT|INTERRES
    71   34  104 1    
    72   35   36 2    
    73   37   38 2    
    74   37   39 am   BACKBONE|DICT|INTERRES
    75   39   40 1    
    76   39  105 1    
    77   40   41 1    
    78   40   42 1    
    79   40  106 1    
    80   41  107 1    
    81   41  108 1    
    82   41  109 1    
    83   42   43 2    
    84   42   44 am   BACKBONE|DICT|INTERRES
    85   44   45 1    
    86   44  110 1    
    87   45   46 1    
    88   45   47 1    
    89   45  111 1    
    90   46  112 1    
    91   46  113 1    
    92   46  114 1    
    93   47   48 2    
    94   47   49 am   BACKBONE|DICT|INTERRES
    95   49   50 1    
    96   49  115 1    
    97   50   51 1    
    98   50   52 1    
    99   50  116 1    
   100   51  117 1    
   101   51  118 1    
   102   51  119 1    
   103   52   53 2    
   104   52   54 am   BACKBONE|DICT|INTERRES
   105   54   55 1    
   106   54  120 1    
   107   55   56 1    
   108   55   57 1    
   109   55  121 1    
   110   56  122 1    
   111   56  123 1    
   112   56  124 1    
   113   57   58 2    
   114   57   59 am   BACKBONE|DICT|INTERRES
   115   59   60 1    
   116   59  125 1    
   117   60   61 1    
   118   60   62 1    
   119   60  126 1    
   120   61  127 1    
   121   61  128 1    
   122   61  129 1    
   123   62   63 2    
   124   62   64 am   BACKBONE|DICT|INTERRES
   125   64   65 1    
   126   64  130 1    
   127   65   66 1    
   128   65   69 1    
   129   65  131 1    
   130   66   67 am   BACKBONE|DICT|INTERRES
   131   66   68 2    
   132   67  132 1    
   133   67  133 1    
   134   69   70 1    
   135   69  134 1    
   136   69  135 1    
   137   70   71 1    
   138   71  136 1    
   139   71  137 1    
@<TRIPOS>SUBSTRUCTURE
     1 UNK         1 GROUP             0       ****    0 ROOT    
