@<TRIPOS>MOLECULE
3R137
137   139    1
SMALL
USER_CHARGES


@<TRIPOS>ATOM
      1 CA         29.1554   -6.7521   -0.8341 C.3       0 UNK        -0.2020 
      2 C          28.4301   -6.0657   -1.9825 C.2       0 UNK         0.4855 
      3 O          28.4689   -6.5708   -3.1040 O.2       0 UNK        -0.5197 
      4 N          27.7801   -4.9279   -1.6920 N.am      1 UNK        -0.4892 
      5 CA         27.0017   -4.0595   -2.5892 C.3       1 UNK         0.0835 
      6 C6         27.8318   -2.9374   -3.2817 C.3       12 UNK        -0.0855 
      7 S7         29.2509   -3.4680   -4.3021 S.3       12 UNK        -0.2931 
      8 C8         30.6551   -2.9415   -3.2666 C.3       12 UNK         0.0378 
      9 C9         30.8146   -1.4267   -3.2586 C.ar      12 UNK        -0.0802 
     10 C10        31.3799   -0.7820   -4.3614 C.ar      12 UNK        -0.0944 
     11 C11        31.5302    0.6078   -4.3738 C.ar      12 UNK        -0.0787 
     12 C12        31.1068    1.3546   -3.2728 C.ar      12 UNK        -0.0862 
     13 C13        30.5079    0.7256   -2.1770 C.ar      12 UNK        -0.0733 
     14 C14        30.3867   -0.6674   -2.1641 C.ar      12 UNK        -0.0832 
     15 C15        29.9439    1.5558   -1.0324 C.3       12 UNK         0.0240 
     16 S16        28.1405    1.7940   -1.2016 S.3       12 UNK        -0.2522 
     17 C17        28.0283    2.6858   -2.7907 C.3       12 UNK        -0.0967 
     18 CA         27.6590    1.7217   -3.9542 C.3       5 UNK         0.0660 
     19 N          26.2418    1.3292   -3.9346 N.am      5 UNK        -0.4015 
     20 C          25.1692    2.0628   -4.2650 C.2       4 UNK         0.4946 
     21 O          25.2321    3.1715   -4.8002 O.2       4 UNK        -0.5353 
     22 CA         23.7880    1.4547   -3.9344 C.3       4 UNK         0.0277 
     23 CB         22.6632    2.5060   -3.9935 C.3       4 UNK        -0.1981 
     24 N          23.4202    0.3283   -4.7981 N.am      4 UNK        -0.4209 
     25 C          23.9922   -0.8806   -4.7781 C.2       3 UNK         0.4942 
     26 O          24.9228   -1.1750   -4.0200 O.2       3 UNK        -0.5208 
     27 CA         23.4453   -1.9362   -5.7549 C.3       3 UNK         0.0250 
     28 CB         23.3356   -1.4135   -7.2023 C.3       3 UNK        -0.1990 
     29 N          24.3556   -3.0710   -5.6886 N.am      3 UNK        -0.4232 
     30 C          24.1779   -4.3236   -6.1172 C.2       2 UNK         0.4993 
     31 O          23.1656   -4.7186   -6.6963 O.2       2 UNK        -0.5286 
     32 CA         25.3393   -5.3031   -5.8506 C.3       2 UNK         0.0209 
     33 CB         26.1234   -5.5736   -7.1453 C.3       2 UNK        -0.1931 
     34 N          26.2682   -4.8127   -4.8231 N.am      2 UNK        -0.4546 
     35 C          26.0171   -4.8184   -3.5070 C.2       1 UNK         0.5154 
     36 O          25.0257   -5.3553   -3.0079 O.2       1 UNK        -0.5181 
     37 C          28.1156    2.2382   -5.3333 C.2       5 UNK         0.5014 
     38 O          28.5186    1.4358   -6.1766 O.2       5 UNK        -0.5248 
     39 N          28.0190    3.5549   -5.5657 N.am      6 UNK        -0.4434 
     40 CA         28.3039    4.2021   -6.8505 C.3       6 UNK         0.0363 
     41 CB         28.1969    5.7260   -6.6860 C.3       6 UNK        -0.1936 
     42 C          27.3968    3.7168   -7.9978 C.2       6 UNK         0.5081 
     43 O          27.8173    3.7602   -9.1533 O.2       6 UNK        -0.5248 
     44 N          26.1910    3.2325   -7.6633 N.am      7 UNK        -0.4718 
     45 CA         25.2845    2.5639   -8.5997 C.3       7 UNK         0.0273 
     46 CB         23.8783    2.4963   -7.9848 C.3       7 UNK        -0.1935 
     47 C          25.7628    1.1558   -9.0042 C.2       7 UNK         0.5018 
     48 O          25.3987    0.6946  -10.0861 O.2       7 UNK        -0.5186 
     49 N          26.5533    0.4968   -8.1424 N.am      8 UNK        -0.4240 
     50 CA         27.1796   -0.7971   -8.4225 C.3       8 UNK         0.0235 
     51 CB         27.4217   -1.5671   -7.1110 C.3       8 UNK        -0.2000 
     52 C          28.4965   -0.6020   -9.1839 C.2       8 UNK         0.4941 
     53 O          28.7342   -1.2997  -10.1692 O.2       8 UNK        -0.5273 
     54 N          29.3246    0.3391   -8.7010 N.am      9 UNK        -0.4262 
     55 CA         30.6193    0.7686   -9.2516 C.3       9 UNK         0.0264 
     56 CB         30.4411    1.3940  -10.6506 C.3       9 UNK        -0.1955 
     57 C          31.7231   -0.3113   -9.2370 C.2       9 UNK         0.5031 
     58 O          32.7809   -0.1015   -9.8335 O.2       9 UNK        -0.5390 
     59 N          31.4946   -1.4225   -8.5203 N.am      10 UNK        -0.4204 
     60 CA         32.3947   -2.5779   -8.4078 C.3       10 UNK         0.0237 
     61 CB         31.6773   -3.6927   -7.6278 C.3       10 UNK        -0.1985 
     62 C          33.7622   -2.2677   -7.7692 C.2       10 UNK         0.4970 
     63 O          34.7170   -3.0110   -7.9969 O.2       10 UNK        -0.4914 
     64 N          33.8291   -1.1798   -6.9942 N.am      11 UNK        -0.4285 
     65 CA         35.0481   -0.6259   -6.3979 C.3       11 UNK         0.1007 
     66 C          35.9779    0.1235   -7.3993 C.2       11 UNK         0.5703 
     67 N          35.5627    0.3849   -8.6351 N.am      11 UNK        -0.7361 
     68 O          37.1070    0.4595   -7.0500 O.2       11 UNK        -0.4986 
     69 C69        34.7161    0.2076   -5.1296 C.3       12 UNK        -0.0947 
     70 S70        33.8401    1.7883   -5.4262 S.3       12 UNK        -0.2240 
     71 C71        32.0897    1.3116   -5.5994 C.3       12 UNK         0.0194 
     72 H72        29.0514   -6.2056    0.1030 H         1 UNK         0.0906 
     73 H73        28.7585   -7.7562   -0.6866 H         1 UNK         0.0906 
     74 H74        30.2181   -6.8360   -1.0602 H         1 UNK         0.0906 
     75 H75        27.7872   -4.6199   -0.7295 H         1 UNK         0.3140 
     76 H76        26.3317   -3.5258   -1.9119 H         1 UNK         0.1085 
     77 H77        27.1934   -2.3184   -3.9111 H         1 UNK         0.0836 
     78 H78        28.1851   -2.2555   -2.5103 H         1 UNK         0.0836 
     79 H79        30.5261   -3.3270   -2.2539 H         1 UNK         0.0731 
     80 H80        31.5672   -3.3989   -3.6526 H         1 UNK         0.0731 
     81 H81        31.6895   -1.3698   -5.2125 H         1 UNK         0.1312 
     82 H82        31.2104    2.4307   -3.2895 H         1 UNK         0.1406 
     83 H83        29.9300   -1.1543   -1.3133 H         1 UNK         0.1631 
     84 H84        30.4361    2.5283   -0.9815 H         1 UNK         0.0717 
     85 H85        30.1490    1.0601   -0.0824 H         1 UNK         0.0717 
     86 H86        27.2854    3.4788   -2.6901 H         1 UNK         0.0934 
     87 H87        28.9772    3.1944   -2.9671 H         1 UNK         0.0934 
     88 H88        28.2139    0.7927   -3.8131 H         1 UNK         0.0739 
     89 H89        26.0548    0.3842   -3.6126 H         1 UNK         0.3093 
     90 H90        23.8391    1.0902   -2.9059 H         1 UNK         0.0818 
     91 H91        21.7121    2.0908   -3.6596 H         1 UNK         0.0819 
     92 H92        22.8880    3.3546   -3.3458 H         1 UNK         0.0819 
     93 H93        22.5243    2.8963   -5.0026 H         1 UNK         0.0819 
     94 H94        22.6637    0.4923   -5.4460 H         1 UNK         0.3041 
     95 H95        22.4627   -2.2519   -5.3994 H         1 UNK         0.0784 
     96 H96        22.6279   -0.5882   -7.2818 H         1 UNK         0.0793 
     97 H97        24.2958   -1.0623   -7.5759 H         1 UNK         0.0793 
     98 H98        22.9854   -2.1918   -7.8803 H         1 UNK         0.0793 
     99 H99        25.1868   -2.8657   -5.1488 H         1 UNK         0.3024 
    100 H100       24.9020   -6.2437   -5.5076 H         1 UNK         0.1171 
    101 H101       25.4715   -5.9878   -7.9157 H         1 UNK         0.0786 
    102 H102       26.9257   -6.2932   -6.9802 H         1 UNK         0.0786 
    103 H103       26.5657   -4.6630   -7.5497 H         1 UNK         0.0786 
    104 H104       27.1437   -4.4102   -5.1340 H         1 UNK         0.2977 
    105 H105       27.5982    4.1343   -4.8531 H         1 UNK         0.3127 
    106 H106       29.3323    3.9558   -7.1237 H         1 UNK         0.0770 
    107 H107       27.1920    6.0300   -6.3898 H         1 UNK         0.0814 
    108 H108       28.4290    6.2361   -7.6220 H         1 UNK         0.0814 
    109 H109       28.8963    6.0954   -5.9359 H         1 UNK         0.0814 
    110 H110       25.9066    3.2659   -6.6877 H         1 UNK         0.2983 
    111 H111       25.2298    3.1647   -9.5105 H         1 UNK         0.0947 
    112 H112       23.1683    2.0484   -8.6815 H         1 UNK         0.0806 
    113 H113       23.5051    3.4895   -7.7340 H         1 UNK         0.0806 
    114 H114       23.8674    1.8953   -7.0772 H         1 UNK         0.0806 
    115 H115       26.8685    0.9764   -7.3080 H         1 UNK         0.3000 
    116 H116       26.5088   -1.3941   -9.0447 H         1 UNK         0.0850 
    117 H117       27.7919   -2.5721   -7.3149 H         1 UNK         0.0810 
    118 H118       28.1567   -1.0834   -6.4678 H         1 UNK         0.0810 
    119 H119       26.5042   -1.6670   -6.5370 H         1 UNK         0.0810 
    120 H120       29.0396    0.8117   -7.8438 H         1 UNK         0.3040 
    121 H121       30.9700    1.5608   -8.5890 H         1 UNK         0.0766 
    122 H122       29.6798    2.1743  -10.6408 H         1 UNK         0.0812 
    123 H123       30.1509    0.6508  -11.3935 H         1 UNK         0.0812 
    124 H124       31.3680    1.8529  -10.9968 H         1 UNK         0.0812 
    125 H125       30.5912   -1.5105   -8.0791 H         1 UNK         0.3205 
    126 H126       32.5892   -2.9381   -9.4200 H         1 UNK         0.0754 
    127 H127       32.3021   -4.5841   -7.5557 H         1 UNK         0.0769 
    128 H128       30.7505   -3.9897   -8.1195 H         1 UNK         0.0769 
    129 H129       31.4328   -3.3850   -6.6106 H         1 UNK         0.0769 
    130 H130       33.0027   -0.6148   -6.8951 H         1 UNK         0.2981 
    131 H131       35.6378   -1.4778   -6.0540 H         1 UNK         0.0541 
    132 H132       36.1830    0.8646   -9.2675 H         1 UNK         0.3459 
    133 H133       34.6347    0.1221   -8.9467 H         1 UNK         0.3459 
    134 H134       35.6424    0.4502   -4.6063 H         1 UNK         0.0612 
    135 H135       34.1471   -0.3956   -4.4222 H         1 UNK         0.0612 
    136 H136       31.9596    0.6936   -6.4839 H         1 UNK         0.0624 
    137 H137       31.5062    2.2140   -5.7892 H         1 UNK         0.0624 
@<TRIPOS>BOND
     1    1    2 1    
     2    1   72 1    
     3    1   73 1    
     4    1   74 1    
     5    2    3 2    
     6    2    4 am   BACKBONE|DICT|INTERRES
     7    4    5 1    
     8    4   75 1    
     9    5    6 1    
    10    5   35 1    
    11    5   76 1    
    12    6    7 1    
    13    6   77 1    
    14    6   78 1    
    15    7    8 1    
    16    8    9 1    
    17    8   79 1    
    18    8   80 1    
    19    9   10 ar   
    20    9   14 ar   
    21   10   11 ar   
    22   10   81 1    
    23   11   12 ar   
    24   11   71 1    
    25   12   13 ar   
    26   12   82 1    
    27   13   14 ar   
    28   13   15 1    
    29   14   83 1    
    30   15   16 1    
    31   15   84 1    
    32   15   85 1    
    33   16   17 1    
    34   17   18 1    
    35   17   86 1    
    36   17   87 1    
    37   18   19 1    
    38   18   37 1    
    39   18   88 1    
    40   19   20 am   BACKBONE|DICT|INTERRES
    41   19   89 1    
    42   20   21 2    
    43   20   22 1    
    44   22   23 1    
    45   22   24 1    
    46   22   90 1    
    47   23   91 1    
    48   23   92 1    
    49   23   93 1    
    50   24   25 am   BACKBONE|DICT|INTERRES
    51   24   94 1    
    52   25   26 2    
    53   25   27 1    
    54   27   28 1    
    55   27   29 1    
    56   27   95 1    
    57   28   96 1    
    58   28   97 1    
    59   28   98 1    
    60   29   30 am   BACKBONE|DICT|INTERRES
    61   29   99 1    
    62   30   31 2    
    63   30   32 1    
    64   32   33 1    
    65   32   34 1    
    66   32  100 1    
    67   33  101 1    
    68   33  102 1    
    69   33  103 1    
    70   34   35 am   BACKBONE|DICT|INTERRES
    71   34  104 1    
    72   35   36 2    
    73   37   38 2    
    74   37   39 am   BACKBONE|DICT|INTERRES
    75   39   40 1    
    76   39  105 1    
    77   40   41 1    
    78   40   42 1    
    79   40  106 1    
    80   41  107 1    
    81   41  108 1    
    82   41  109 1    
    83   42   43 2    
    84   42   44 am   BACKBONE|DICT|INTERRES
    85   44   45 1    
    86   44  110 1    
    87   45   46 1    
    88   45   47 1    
    89   45  111 1    
    90   46  112 1    
    91   46  113 1    
    92   46  114 1    
    93   47   48 2    
    94   47   49 am   BACKBONE|DICT|INTERRES
    95   49   50 1    
    96   49  115 1    
    97   50   51 1    
    98   50   52 1    
    99   50  116 1    
   100   51  117 1    
   101   51  118 1    
   102   51  119 1    
   103   52   53 2    
   104   52   54 am   BACKBONE|DICT|INTERRES
   105   54   55 1    
   106   54  120 1    
   107   55   56 1    
   108   55   57 1    
   109   55  121 1    
   110   56  122 1    
   111   56  123 1    
   112   56  124 1    
   113   57   58 2    
   114   57   59 am   BACKBONE|DICT|INTERRES
   115   59   60 1    
   116   59  125 1    
   117   60   61 1    
   118   60   62 1    
   119   60  126 1    
   120   61  127 1    
   121   61  128 1    
   122   61  129 1    
   123   62   63 2    
   124   62   64 am   BACKBONE|DICT|INTERRES
   125   64   65 1    
   126   64  130 1    
   127   65   66 1    
   128   65   69 1    
   129   65  131 1    
   130   66   67 am   BACKBONE|DICT|INTERRES
   131   66   68 2    
   132   67  132 1    
   133   67  133 1    
   134   69   70 1    
   135   69  134 1    
   136   69  135 1    
   137   70   71 1    
   138   71  136 1    
   139   71  137 1    
@<TRIPOS>SUBSTRUCTURE
     1 UNK         1 GROUP             0       ****    0 ROOT    
