@<TRIPOS>MOLECULE
3R137
137   139    1
SMALL
USER_CHARGES


@<TRIPOS>ATOM
      1 CA         28.6630   -4.5425   -9.6302 C.3       0 UNK        -0.2020 
      2 C          28.2476   -5.0647   -8.2637 C.2       0 UNK         0.4855 
      3 O          27.9319   -6.2469   -8.1287 O.2       0 UNK        -0.5197 
      4 N          28.2514   -4.1896   -7.2527 N.am      1 UNK        -0.4892 
      5 CA         27.8537   -4.4965   -5.8744 C.3       1 UNK         0.0835 
      6 C6         28.7086   -3.7238   -4.8403 C.3       12 UNK        -0.0855 
      7 S7         30.4759   -4.1911   -4.9494 S.3       12 UNK        -0.2931 
      8 C8         30.9992   -4.1767   -3.2058 C.3       12 UNK         0.0378 
      9 C9         31.4269   -2.7870   -2.7534 C.ar      12 UNK        -0.0802 
     10 C10        32.7775   -2.5028   -2.5241 C.ar      12 UNK        -0.0944 
     11 C11        33.1734   -1.2370   -2.0778 C.ar      12 UNK        -0.0787 
     12 C12        32.2062   -0.2482   -1.8717 C.ar      12 UNK        -0.0862 
     13 C13        30.8540   -0.5204   -2.0976 C.ar      12 UNK        -0.0733 
     14 C14        30.4707   -1.7919   -2.5328 C.ar      12 UNK        -0.0832 
     15 C15        29.8014    0.5481   -1.8510 C.3       12 UNK         0.0240 
     16 S16        29.7980    1.7901   -3.1798 S.3       12 UNK        -0.2522 
     17 C17        28.0523    2.3146   -3.1681 C.3       12 UNK        -0.0967 
     18 CA         27.2704    1.7268   -4.3759 C.3       5 UNK         0.0660 
     19 N          25.8621    1.4352   -4.0824 N.am      5 UNK        -0.4015 
     20 C          24.9241    2.2764   -3.6251 C.2       4 UNK         0.4946 
     21 O          25.1370    3.4670   -3.3902 O.2       4 UNK        -0.5353 
     22 CA         23.4999    1.7232   -3.4440 C.3       4 UNK         0.0277 
     23 CB         22.5493    2.3521   -4.4770 C.3       4 UNK        -0.1981 
     24 N          23.4104    0.2646   -3.5535 N.am      4 UNK        -0.4209 
     25 C          23.7784   -0.6189   -2.6196 C.2       3 UNK         0.4942 
     26 O          24.2839   -0.2996   -1.5436 O.2       3 UNK        -0.5208 
     27 CA         23.5406   -2.1098   -2.9288 C.3       3 UNK         0.0250 
     28 CB         22.0513   -2.4680   -2.7593 C.3       3 UNK        -0.1990 
     29 N          24.0510   -2.5918   -4.2237 N.am      3 UNK        -0.4232 
     30 C          23.7167   -2.2276   -5.4704 C.2       2 UNK         0.4993 
     31 O          22.9365   -1.3090   -5.7286 O.2       2 UNK        -0.5286 
     32 CA         24.3551   -3.0314   -6.6216 C.3       2 UNK         0.0209 
     33 CB         24.1374   -2.3796   -8.0005 C.3       2 UNK        -0.1931 
     34 N          25.7900   -3.2805   -6.4556 N.am      2 UNK        -0.4546 
     35 C          26.3475   -4.2259   -5.6845 C.2       1 UNK         0.5154 
     36 O          25.7081   -4.8899   -4.8678 O.2       1 UNK        -0.5181 
     37 C          27.4448    2.5760   -5.6523 C.2       5 UNK         0.5014 
     38 O          28.1781    2.1756   -6.5552 O.2       5 UNK        -0.5248 
     39 N          26.7335    3.7089   -5.7255 N.am      6 UNK        -0.4434 
     40 CA         26.7077    4.6286   -6.8661 C.3       6 UNK         0.0363 
     41 CB         25.9604    5.9091   -6.4602 C.3       6 UNK        -0.1936 
     42 C          26.0848    4.0224   -8.1373 C.2       6 UNK         0.5081 
     43 O          26.3965    4.4839   -9.2354 O.2       6 UNK        -0.5248 
     44 N          25.2213    3.0092   -7.9711 N.am      7 UNK        -0.4718 
     45 CA         24.6100    2.2439   -9.0595 C.3       7 UNK         0.0273 
     46 CB         23.4817    1.3621   -8.4980 C.3       7 UNK        -0.1935 
     47 C          25.6404    1.4101   -9.8423 C.2       7 UNK         0.5018 
     48 O          25.6571    1.4774  -11.0718 O.2       7 UNK        -0.5186 
     49 N          26.4916    0.6777   -9.1120 N.am      8 UNK        -0.4240 
     50 CA         27.6174   -0.1170   -9.6007 C.3       8 UNK         0.0235 
     51 CB         27.1633   -1.2347  -10.5641 C.3       8 UNK        -0.2000 
     52 C          28.3026   -0.7420   -8.3832 C.2       8 UNK         0.4941 
     53 O          27.6126   -1.3306   -7.5454 O.2       8 UNK        -0.5273 
     54 N          29.6350   -0.6684   -8.3216 N.am      9 UNK        -0.4262 
     55 CA         30.4431   -1.2658   -7.2630 C.3       9 UNK         0.0264 
     56 CB         30.5333   -0.3230   -6.0522 C.3       9 UNK        -0.1955 
     57 C          31.8336   -1.5980   -7.7952 C.2       9 UNK         0.5031 
     58 O          32.3355   -0.8899   -8.6716 O.2       9 UNK        -0.5390 
     59 N          32.4485   -2.6365   -7.2143 N.am      10 UNK        -0.4204 
     60 CA         33.8172   -3.0759   -7.5055 C.3       10 UNK         0.0237 
     61 CB         34.0996   -4.3795   -6.7411 C.3       10 UNK        -0.1985 
     62 C          34.8807   -2.0140   -7.1718 C.2       10 UNK         0.4970 
     63 O          35.9093   -1.9545   -7.8462 O.2       10 UNK        -0.4914 
     64 N          34.5966   -1.1886   -6.1576 N.am      11 UNK        -0.4285 
     65 CA         35.4010   -0.0265   -5.7576 C.3       11 UNK         0.1007 
     66 C          35.1629    1.2420   -6.6306 C.2       11 UNK         0.5703 
     67 N          34.2689    1.2321   -7.6142 N.am      11 UNK        -0.7361 
     68 O          35.8177    2.2602   -6.4197 O.2       11 UNK        -0.4986 
     69 C69        35.2341    0.2790   -4.2457 C.3       12 UNK        -0.0947 
     70 S70        35.7298   -1.1376   -3.2080 S.3       12 UNK        -0.2240 
     71 C71        34.6371   -0.9504   -1.7646 C.3       12 UNK         0.0194 
     72 H72        27.7864   -4.4077  -10.2632 H         1 UNK         0.0906 
     73 H73        29.1881   -3.5907   -9.5565 H         1 UNK         0.0906 
     74 H74        29.3298   -5.2532  -10.1179 H         1 UNK         0.0906 
     75 H75        28.4238   -3.2089   -7.4391 H         1 UNK         0.3140 
     76 H76        28.0005   -5.5632   -5.6883 H         1 UNK         0.1085 
     77 H77        28.3465   -3.9325   -3.8320 H         1 UNK         0.0836 
     78 H78        28.6146   -2.6457   -4.9840 H         1 UNK         0.0836 
     79 H79        31.8273   -4.8783   -3.0940 H         1 UNK         0.0731 
     80 H80        30.2018   -4.5525   -2.5633 H         1 UNK         0.0731 
     81 H81        33.5244   -3.2700   -2.6776 H         1 UNK         0.1312 
     82 H82        32.5003    0.7329   -1.5240 H         1 UNK         0.1406 
     83 H83        29.4248   -2.0082   -2.6959 H         1 UNK         0.1631 
     84 H84        29.9860    1.0418   -0.8958 H         1 UNK         0.0717 
     85 H85        28.8168    0.0842   -1.7726 H         1 UNK         0.0717 
     86 H86        27.5966    1.9982   -2.2286 H         1 UNK         0.0934 
     87 H87        28.0077    3.4055   -3.1491 H         1 UNK         0.0934 
     88 H88        27.6861    0.7439   -4.6013 H         1 UNK         0.0739 
     89 H89        25.5714    0.4868   -4.2693 H         1 UNK         0.3093 
     90 H90        23.1660    2.0148   -2.4459 H         1 UNK         0.0818 
     91 H91        22.5638    3.4413   -4.4152 H         1 UNK         0.0819 
     92 H92        22.8221    2.0783   -5.4966 H         1 UNK         0.0819 
     93 H93        21.5195    2.0352   -4.3108 H         1 UNK         0.0819 
     94 H94        23.0409   -0.1199   -4.4239 H         1 UNK         0.3041 
     95 H95        24.0948   -2.6707   -2.1742 H         1 UNK         0.0784 
     96 H96        21.6886   -2.1749   -1.7730 H         1 UNK         0.0793 
     97 H97        21.4236   -1.9675   -3.4975 H         1 UNK         0.0793 
     98 H98        21.8896   -3.5416   -2.8566 H         1 UNK         0.0793 
     99 H99        24.7013   -3.3706   -4.1620 H         1 UNK         0.3024 
    100 H100       23.8410   -3.9953   -6.6326 H         1 UNK         0.1171 
    101 H101       24.4808   -3.0332   -8.8024 H         1 UNK         0.0786 
    102 H102       23.0823   -2.1743   -8.1863 H         1 UNK         0.0786 
    103 H103       24.6791   -1.4382   -8.0868 H         1 UNK         0.0786 
    104 H104       26.4089   -2.6953   -7.0113 H         1 UNK         0.2977 
    105 H105       26.1416    3.9352   -4.9287 H         1 UNK         0.3127 
    106 H106       27.7404    4.8923   -7.1042 H         1 UNK         0.0770 
    107 H107       24.9253    5.7021   -6.1853 H         1 UNK         0.0814 
    108 H108       25.9429    6.6281   -7.2806 H         1 UNK         0.0814 
    109 H109       26.4417    6.3983   -5.6132 H         1 UNK         0.0814 
    110 H110       25.0149    2.7160   -7.0287 H         1 UNK         0.2983 
    111 H111       24.1657    2.9530   -9.7618 H         1 UNK         0.0947 
    112 H112       23.8269    0.7214   -7.6864 H         1 UNK         0.0806 
    113 H113       23.0657    0.7153   -9.2719 H         1 UNK         0.0806 
    114 H114       22.6623    1.9698   -8.1138 H         1 UNK         0.0806 
    115 H115       26.4178    0.7051   -8.1038 H         1 UNK         0.3000 
    116 H116       28.3135    0.5509  -10.1117 H         1 UNK         0.0850 
    117 H117       28.0113   -1.8425  -10.8798 H         1 UNK         0.0810 
    118 H118       26.7133   -0.8370  -11.4727 H         1 UNK         0.0810 
    119 H119       26.4376   -1.9005  -10.0959 H         1 UNK         0.0810 
    120 H120       30.1662   -0.2185   -9.0571 H         1 UNK         0.3040 
    121 H121       29.9821   -2.1988   -6.9512 H         1 UNK         0.0766 
    122 H122       29.5518   -0.1642   -5.6103 H         1 UNK         0.0812 
    123 H123       30.9362    0.6525   -6.3271 H         1 UNK         0.0812 
    124 H124       31.1717   -0.7355   -5.2699 H         1 UNK         0.0812 
    125 H125       31.9523   -3.1558   -6.4991 H         1 UNK         0.3205 
    126 H126       33.8808   -3.2807   -8.5762 H         1 UNK         0.0754 
    127 H127       35.1045   -4.7475   -6.9537 H         1 UNK         0.0769 
    128 H128       33.4006   -5.1664   -7.0258 H         1 UNK         0.0769 
    129 H129       34.0245   -4.2393   -5.6616 H         1 UNK         0.0769 
    130 H130       33.7357   -1.3223   -5.6506 H         1 UNK         0.2981 
    131 H131       36.4503   -0.2833   -5.9149 H         1 UNK         0.0541 
    132 H132       34.1438    2.0668   -8.1638 H         1 UNK         0.3459 
    133 H133       33.7324    0.4030   -7.8380 H         1 UNK         0.3459 
    134 H134       35.8478    1.1317   -3.9500 H         1 UNK         0.0612 
    135 H135       34.2002    0.5527   -4.0287 H         1 UNK         0.0612 
    136 H136       34.9685   -1.6400   -0.9872 H         1 UNK         0.0624 
    137 H137       34.7624    0.0537   -1.3563 H         1 UNK         0.0624 
@<TRIPOS>BOND
     1    1    2 1    
     2    1   72 1    
     3    1   73 1    
     4    1   74 1    
     5    2    3 2    
     6    2    4 am   BACKBONE|DICT|INTERRES
     7    4    5 1    
     8    4   75 1    
     9    5    6 1    
    10    5   35 1    
    11    5   76 1    
    12    6    7 1    
    13    6   77 1    
    14    6   78 1    
    15    7    8 1    
    16    8    9 1    
    17    8   79 1    
    18    8   80 1    
    19    9   10 ar   
    20    9   14 ar   
    21   10   11 ar   
    22   10   81 1    
    23   11   12 ar   
    24   11   71 1    
    25   12   13 ar   
    26   12   82 1    
    27   13   14 ar   
    28   13   15 1    
    29   14   83 1    
    30   15   16 1    
    31   15   84 1    
    32   15   85 1    
    33   16   17 1    
    34   17   18 1    
    35   17   86 1    
    36   17   87 1    
    37   18   19 1    
    38   18   37 1    
    39   18   88 1    
    40   19   20 am   BACKBONE|DICT|INTERRES
    41   19   89 1    
    42   20   21 2    
    43   20   22 1    
    44   22   23 1    
    45   22   24 1    
    46   22   90 1    
    47   23   91 1    
    48   23   92 1    
    49   23   93 1    
    50   24   25 am   BACKBONE|DICT|INTERRES
    51   24   94 1    
    52   25   26 2    
    53   25   27 1    
    54   27   28 1    
    55   27   29 1    
    56   27   95 1    
    57   28   96 1    
    58   28   97 1    
    59   28   98 1    
    60   29   30 am   BACKBONE|DICT|INTERRES
    61   29   99 1    
    62   30   31 2    
    63   30   32 1    
    64   32   33 1    
    65   32   34 1    
    66   32  100 1    
    67   33  101 1    
    68   33  102 1    
    69   33  103 1    
    70   34   35 am   BACKBONE|DICT|INTERRES
    71   34  104 1    
    72   35   36 2    
    73   37   38 2    
    74   37   39 am   BACKBONE|DICT|INTERRES
    75   39   40 1    
    76   39  105 1    
    77   40   41 1    
    78   40   42 1    
    79   40  106 1    
    80   41  107 1    
    81   41  108 1    
    82   41  109 1    
    83   42   43 2    
    84   42   44 am   BACKBONE|DICT|INTERRES
    85   44   45 1    
    86   44  110 1    
    87   45   46 1    
    88   45   47 1    
    89   45  111 1    
    90   46  112 1    
    91   46  113 1    
    92   46  114 1    
    93   47   48 2    
    94   47   49 am   BACKBONE|DICT|INTERRES
    95   49   50 1    
    96   49  115 1    
    97   50   51 1    
    98   50   52 1    
    99   50  116 1    
   100   51  117 1    
   101   51  118 1    
   102   51  119 1    
   103   52   53 2    
   104   52   54 am   BACKBONE|DICT|INTERRES
   105   54   55 1    
   106   54  120 1    
   107   55   56 1    
   108   55   57 1    
   109   55  121 1    
   110   56  122 1    
   111   56  123 1    
   112   56  124 1    
   113   57   58 2    
   114   57   59 am   BACKBONE|DICT|INTERRES
   115   59   60 1    
   116   59  125 1    
   117   60   61 1    
   118   60   62 1    
   119   60  126 1    
   120   61  127 1    
   121   61  128 1    
   122   61  129 1    
   123   62   63 2    
   124   62   64 am   BACKBONE|DICT|INTERRES
   125   64   65 1    
   126   64  130 1    
   127   65   66 1    
   128   65   69 1    
   129   65  131 1    
   130   66   67 am   BACKBONE|DICT|INTERRES
   131   66   68 2    
   132   67  132 1    
   133   67  133 1    
   134   69   70 1    
   135   69  134 1    
   136   69  135 1    
   137   70   71 1    
   138   71  136 1    
   139   71  137 1    
@<TRIPOS>SUBSTRUCTURE
     1 UNK         1 GROUP             0       ****    0 ROOT    
