@<TRIPOS>MOLECULE
3R137
137   139    1
SMALL
USER_CHARGES


@<TRIPOS>ATOM
      1 CA         27.2024   -3.5941    3.1545 C.3       0 UNK        -0.2020 
      2 C          27.4587   -2.3040    2.3902 C.2       0 UNK         0.4855 
      3 O          27.3057   -1.2190    2.9517 O.2       0 UNK        -0.5197 
      4 N          27.8525   -2.4141    1.1153 N.am      1 UNK        -0.4892 
      5 CA         28.1007   -1.2887    0.2051 C.3       1 UNK         0.0835 
      6 C6         28.8781   -1.7280   -1.0672 C.3       12 UNK        -0.0855 
      7 S7         28.1623   -3.1955   -1.9011 S.3       12 UNK        -0.2931 
      8 C8         29.6421   -4.1390   -2.3835 C.3       12 UNK         0.0378 
      9 C9         30.0824   -3.8159   -3.8047 C.ar      12 UNK        -0.0802 
     10 C10        30.8978   -2.7097   -4.0630 C.ar      12 UNK        -0.0944 
     11 C11        31.3379   -2.4394   -5.3635 C.ar      12 UNK        -0.0787 
     12 C12        30.9673   -3.2975   -6.4047 C.ar      12 UNK        -0.0862 
     13 C13        30.1459   -4.4025   -6.1625 C.ar      12 UNK        -0.0733 
     14 C14        29.6998   -4.6498   -4.8605 C.ar      12 UNK        -0.0832 
     15 C15        29.7876   -5.3628   -7.2925 C.3       12 UNK         0.0240 
     16 S16        28.7336   -4.6135   -8.5777 S.3       12 UNK        -0.2522 
     17 C17        27.1825   -4.2975   -7.6671 C.3       12 UNK        -0.0967 
     18 CA         26.4418   -3.0197   -8.1538 C.3       5 UNK         0.0660 
     19 N          25.0761   -2.8794   -7.6366 N.am      5 UNK        -0.4015 
     20 C          24.7000   -2.8635   -6.3516 C.2       4 UNK         0.4946 
     21 O          25.4538   -3.1061   -5.4079 O.2       4 UNK        -0.5353 
     22 CA         23.2437   -2.4569   -6.0676 C.3       4 UNK         0.0277 
     23 CB         22.4597   -3.6226   -5.4426 C.3       4 UNK        -0.1981 
     24 N          23.1863   -1.2970   -5.1739 N.am      4 UNK        -0.4209 
     25 C          23.7406   -0.1013   -5.4266 C.2       3 UNK         0.4942 
     26 O          24.2968    0.1846   -6.4880 O.2       3 UNK        -0.5208 
     27 CA         23.6818    0.9577   -4.3085 C.3       3 UNK         0.0250 
     28 CB         22.4744    1.8864   -4.5147 C.3       3 UNK        -0.1990 
     29 N          23.6558    0.4170   -2.9415 N.am      3 UNK        -0.4232 
     30 C          24.6248   -0.3403   -2.4072 C.2       2 UNK         0.4993 
     31 O          25.6079   -0.7234   -3.0396 O.2       2 UNK        -0.5286 
     32 CA         24.4558   -0.7532   -0.9318 C.3       2 UNK         0.0209 
     33 CB         23.3817   -1.8462   -0.7942 C.3       2 UNK        -0.1931 
     34 N          25.7114   -1.2584   -0.3675 N.am      2 UNK        -0.4546 
     35 C          26.8114   -0.5203   -0.1577 C.2       1 UNK         0.5154 
     36 O          26.8368    0.7099   -0.2362 O.2       1 UNK        -0.5181 
     37 C          27.2614   -1.7315   -7.9360 C.2       5 UNK         0.5014 
     38 O          27.6990   -1.1295   -8.9186 O.2       5 UNK        -0.5248 
     39 N          27.4545   -1.3294   -6.6722 N.am      6 UNK        -0.4434 
     40 CA         28.3853   -0.2781   -6.2545 C.3       6 UNK         0.0363 
     41 CB         28.3731   -0.1388   -4.7278 C.3       6 UNK        -0.1936 
     42 C          28.1681    1.0909   -6.9150 C.2       6 UNK         0.5081 
     43 O          29.1562    1.7562   -7.2209 O.2       6 UNK        -0.5248 
     44 N          26.9091    1.4817   -7.1644 N.am      7 UNK        -0.4718 
     45 CA         26.5747    2.7478   -7.8286 C.3       7 UNK         0.0273 
     46 CB         25.0707    3.0294   -7.6876 C.3       7 UNK        -0.1935 
     47 C          26.9963    2.8022   -9.3090 C.2       7 UNK         0.5018 
     48 O          27.2070    3.8993   -9.8278 O.2       7 UNK        -0.5186 
     49 N          27.1145    1.6352   -9.9568 N.am      8 UNK        -0.4240 
     50 CA         27.5970    1.4981  -11.3304 C.3       8 UNK         0.0235 
     51 CB         26.8113    0.3824  -12.0402 C.3       8 UNK        -0.2000 
     52 C          29.1032    1.2020  -11.3582 C.2       8 UNK         0.4941 
     53 O          29.8214    1.7960  -12.1629 O.2       8 UNK        -0.5273 
     54 N          29.5502    0.2807  -10.4938 N.am      9 UNK        -0.4262 
     55 CA         30.9286   -0.2052  -10.4281 C.3       9 UNK         0.0264 
     56 CB         30.9556   -1.5114   -9.6240 C.3       9 UNK        -0.1955 
     57 C          31.9247    0.8020   -9.8335 C.2       9 UNK         0.5031 
     58 O          33.0931    0.7790  -10.2244 O.2       9 UNK        -0.5390 
     59 N          31.4707    1.6368   -8.8864 N.am      10 UNK        -0.4204 
     60 CA         32.2017    2.6708   -8.1386 C.3       10 UNK         0.0237 
     61 CB         32.7625    3.7578   -9.0767 C.3       10 UNK        -0.1985 
     62 C          33.2900    2.1454   -7.1828 C.2       10 UNK         0.4970 
     63 O          33.3758    2.6386   -6.0580 O.2       10 UNK        -0.4914 
     64 N          34.1004    1.1814   -7.6388 N.am      11 UNK        -0.4285 
     65 CA         35.2611    0.5989   -6.9398 C.3       11 UNK         0.1007 
     66 C          36.4289    1.6044   -6.6844 C.2       11 UNK         0.5703 
     67 N          36.5039    2.7241   -7.3950 N.am      11 UNK        -0.7361 
     68 O          37.3044    1.3564   -5.8580 O.2       11 UNK        -0.4986 
     69 C69        34.8648   -0.2115   -5.6700 C.3       12 UNK        -0.0947 
     70 S70        33.9153   -1.7214   -6.0533 S.3       12 UNK        -0.2240 
     71 C71        32.2161   -1.2252   -5.6389 C.3       12 UNK         0.0194 
     72 H72        27.3847   -4.4758    2.5403 H         1 UNK         0.0906 
     73 H73        27.8528   -3.6489    4.0270 H         1 UNK         0.0906 
     74 H74        26.1686   -3.6277    3.4973 H         1 UNK         0.0906 
     75 H75        27.9613   -3.3290    0.6991 H         1 UNK         0.3140 
     76 H76        28.7332   -0.5766    0.7406 H         1 UNK         0.1085 
     77 H77        28.9437   -0.9104   -1.7877 H         1 UNK         0.0836 
     78 H78        29.9086   -1.9455   -0.7846 H         1 UNK         0.0836 
     79 H79        29.4097   -5.2019   -2.3022 H         1 UNK         0.0731 
     80 H80        30.4605   -3.9640   -1.6840 H         1 UNK         0.0731 
     81 H81        31.1912   -2.0620   -3.2484 H         1 UNK         0.1312 
     82 H82        31.3335   -3.1189   -7.4043 H         1 UNK         0.1406 
     83 H83        29.0719   -5.5079   -4.6620 H         1 UNK         0.1631 
     84 H84        29.2898   -6.2529   -6.9044 H         1 UNK         0.0717 
     85 H85        30.7090   -5.7119   -7.7605 H         1 UNK         0.0717 
     86 H86        26.5388   -5.1689   -7.7946 H         1 UNK         0.0934 
     87 H87        27.3973   -4.2393   -6.5999 H         1 UNK         0.0934 
     88 H88        26.3169   -3.1196   -9.2335 H         1 UNK         0.0739 
     89 H89        24.3844   -2.6390   -8.3328 H         1 UNK         0.3093 
     90 H90        22.7582   -2.1768   -7.0047 H         1 UNK         0.0818 
     91 H91        21.4150   -3.3578   -5.2785 H         1 UNK         0.0819 
     92 H92        22.4733   -4.4960   -6.0959 H         1 UNK         0.0819 
     93 H93        22.8848   -3.9263   -4.4847 H         1 UNK         0.0819 
     94 H94        22.7891   -1.4485   -4.2593 H         1 UNK         0.3041 
     95 H95        24.5895    1.5585   -4.3984 H         1 UNK         0.0784 
     96 H96        22.4796    2.3173   -5.5171 H         1 UNK         0.0793 
     97 H97        21.5301    1.3540   -4.3946 H         1 UNK         0.0793 
     98 H98        22.4859    2.7169   -3.8085 H         1 UNK         0.0793 
     99 H99        22.8698    0.6835   -2.3656 H         1 UNK         0.3024 
    100 H100       24.1528    0.1270   -0.3603 H         1 UNK         0.1171 
    101 H101       22.4120   -1.4965   -1.1505 H         1 UNK         0.0786 
    102 H102       23.6387   -2.7370   -1.3696 H         1 UNK         0.0786 
    103 H103       23.2514   -2.1452    0.2461 H         1 UNK         0.0786 
    104 H104       25.8150   -2.2613   -0.3214 H         1 UNK         0.2977 
    105 H105       26.9929   -1.8575   -5.9366 H         1 UNK         0.3127 
    106 H106       29.3768   -0.6222   -6.5493 H         1 UNK         0.0770 
    107 H107       27.4658    0.3547   -4.3813 H         1 UNK         0.0814 
    108 H108       29.2179    0.4602   -4.3862 H         1 UNK         0.0814 
    109 H109       28.4381   -1.1088   -4.2350 H         1 UNK         0.0814 
    110 H110       26.1334    0.8775   -6.9050 H         1 UNK         0.2983 
    111 H111       27.1155    3.5449   -7.3132 H         1 UNK         0.0947 
    112 H112       24.8112    3.9940   -8.1259 H         1 UNK         0.0806 
    113 H113       24.7683    3.0583   -6.6410 H         1 UNK         0.0806 
    114 H114       24.4701    2.2713   -8.1915 H         1 UNK         0.0806 
    115 H115       26.9738    0.7775   -9.4351 H         1 UNK         0.3000 
    116 H116       27.4276    2.4269  -11.8799 H         1 UNK         0.0850 
    117 H117       27.1504    0.2620  -13.0700 H         1 UNK         0.0810 
    118 H118       25.7460    0.6110  -12.0748 H         1 UNK         0.0810 
    119 H119       26.9300   -0.5812  -11.5430 H         1 UNK         0.0810 
    120 H120       28.8756   -0.1900   -9.8914 H         1 UNK         0.3040 
    121 H121       31.2578   -0.4264  -11.4457 H         1 UNK         0.0766 
    122 H122       30.5602   -1.3598   -8.6201 H         1 UNK         0.0812 
    123 H123       31.9715   -1.8977   -9.5282 H         1 UNK         0.0812 
    124 H124       30.3559   -2.2854  -10.1035 H         1 UNK         0.0812 
    125 H125       30.5042    1.5346   -8.5850 H         1 UNK         0.3205 
    126 H126       31.4511    3.1505   -7.5084 H         1 UNK         0.0754 
    127 H127       33.2124    4.5705   -8.5048 H         1 UNK         0.0769 
    128 H128       31.9740    4.1924   -9.6913 H         1 UNK         0.0769 
    129 H129       33.5306    3.3684   -9.7453 H         1 UNK         0.0769 
    130 H130       33.9519    0.8725   -8.5969 H         1 UNK         0.2981 
    131 H131       35.6878   -0.1116   -7.6484 H         1 UNK         0.0541 
    132 H132       37.2680    3.3608   -7.2320 H         1 UNK         0.3459 
    133 H133       35.8088    2.9354   -8.0920 H         1 UNK         0.3459 
    134 H134       34.3241    0.4107   -4.9563 H         1 UNK         0.0612 
    135 H135       35.7554   -0.5546   -5.1413 H         1 UNK         0.0612 
    136 H136       31.8036   -0.6447   -6.4648 H         1 UNK         0.0624 
    137 H137       32.2252   -0.5645   -4.7709 H         1 UNK         0.0624 
@<TRIPOS>BOND
     1    1    2 1    
     2    1   72 1    
     3    1   73 1    
     4    1   74 1    
     5    2    3 2    
     6    2    4 am   BACKBONE|DICT|INTERRES
     7    4    5 1    
     8    4   75 1    
     9    5    6 1    
    10    5   35 1    
    11    5   76 1    
    12    6    7 1    
    13    6   77 1    
    14    6   78 1    
    15    7    8 1    
    16    8    9 1    
    17    8   79 1    
    18    8   80 1    
    19    9   10 ar   
    20    9   14 ar   
    21   10   11 ar   
    22   10   81 1    
    23   11   12 ar   
    24   11   71 1    
    25   12   13 ar   
    26   12   82 1    
    27   13   14 ar   
    28   13   15 1    
    29   14   83 1    
    30   15   16 1    
    31   15   84 1    
    32   15   85 1    
    33   16   17 1    
    34   17   18 1    
    35   17   86 1    
    36   17   87 1    
    37   18   19 1    
    38   18   37 1    
    39   18   88 1    
    40   19   20 am   BACKBONE|DICT|INTERRES
    41   19   89 1    
    42   20   21 2    
    43   20   22 1    
    44   22   23 1    
    45   22   24 1    
    46   22   90 1    
    47   23   91 1    
    48   23   92 1    
    49   23   93 1    
    50   24   25 am   BACKBONE|DICT|INTERRES
    51   24   94 1    
    52   25   26 2    
    53   25   27 1    
    54   27   28 1    
    55   27   29 1    
    56   27   95 1    
    57   28   96 1    
    58   28   97 1    
    59   28   98 1    
    60   29   30 am   BACKBONE|DICT|INTERRES
    61   29   99 1    
    62   30   31 2    
    63   30   32 1    
    64   32   33 1    
    65   32   34 1    
    66   32  100 1    
    67   33  101 1    
    68   33  102 1    
    69   33  103 1    
    70   34   35 am   BACKBONE|DICT|INTERRES
    71   34  104 1    
    72   35   36 2    
    73   37   38 2    
    74   37   39 am   BACKBONE|DICT|INTERRES
    75   39   40 1    
    76   39  105 1    
    77   40   41 1    
    78   40   42 1    
    79   40  106 1    
    80   41  107 1    
    81   41  108 1    
    82   41  109 1    
    83   42   43 2    
    84   42   44 am   BACKBONE|DICT|INTERRES
    85   44   45 1    
    86   44  110 1    
    87   45   46 1    
    88   45   47 1    
    89   45  111 1    
    90   46  112 1    
    91   46  113 1    
    92   46  114 1    
    93   47   48 2    
    94   47   49 am   BACKBONE|DICT|INTERRES
    95   49   50 1    
    96   49  115 1    
    97   50   51 1    
    98   50   52 1    
    99   50  116 1    
   100   51  117 1    
   101   51  118 1    
   102   51  119 1    
   103   52   53 2    
   104   52   54 am   BACKBONE|DICT|INTERRES
   105   54   55 1    
   106   54  120 1    
   107   55   56 1    
   108   55   57 1    
   109   55  121 1    
   110   56  122 1    
   111   56  123 1    
   112   56  124 1    
   113   57   58 2    
   114   57   59 am   BACKBONE|DICT|INTERRES
   115   59   60 1    
   116   59  125 1    
   117   60   61 1    
   118   60   62 1    
   119   60  126 1    
   120   61  127 1    
   121   61  128 1    
   122   61  129 1    
   123   62   63 2    
   124   62   64 am   BACKBONE|DICT|INTERRES
   125   64   65 1    
   126   64  130 1    
   127   65   66 1    
   128   65   69 1    
   129   65  131 1    
   130   66   67 am   BACKBONE|DICT|INTERRES
   131   66   68 2    
   132   67  132 1    
   133   67  133 1    
   134   69   70 1    
   135   69  134 1    
   136   69  135 1    
   137   70   71 1    
   138   71  136 1    
   139   71  137 1    
@<TRIPOS>SUBSTRUCTURE
     1 UNK         1 GROUP             0       ****    0 ROOT    
