@<TRIPOS>MOLECULE
3R137
137   139    1
SMALL
USER_CHARGES


@<TRIPOS>ATOM
      1 CA         24.6961   -6.5713   -4.1491 C.3       0 UNK        -0.2020 
      2 C          25.1197   -5.6653   -3.0029 C.2       0 UNK         0.4855 
      3 O          24.2893   -4.9371   -2.4573 O.2       0 UNK        -0.5197 
      4 N          26.4063   -5.7024   -2.6311 N.am      1 UNK        -0.4892 
      5 CA         26.9995   -4.8640   -1.5848 C.3       1 UNK         0.0835 
      6 C6         28.4443   -5.3115   -1.2625 C.3       12 UNK        -0.0855 
      7 S7         29.1081   -4.5074    0.2368 S.3       12 UNK        -0.2931 
      8 C8         30.7722   -4.0061   -0.3084 C.3       12 UNK         0.0378 
      9 C9         30.7512   -2.9426   -1.4002 C.ar      12 UNK        -0.0802 
     10 C10        31.1364   -3.2676   -2.7046 C.ar      12 UNK        -0.0944 
     11 C11        31.1923   -2.2837   -3.6951 C.ar      12 UNK        -0.0787 
     12 C12        30.8576   -0.9657   -3.3749 C.ar      12 UNK        -0.0862 
     13 C13        30.4595   -0.6249   -2.0771 C.ar      12 UNK        -0.0733 
     14 C14        30.4027   -1.6224   -1.0962 C.ar      12 UNK        -0.0832 
     15 C15        30.1574    0.8241   -1.7081 C.3       12 UNK         0.0240 
     16 S16        28.6265    1.4574   -2.4690 S.3       12 UNK        -0.2522 
     17 C17        29.2404    2.1570   -4.0369 C.3       12 UNK        -0.0967 
     18 CA         28.4298    1.7700   -5.3015 C.3       5 UNK         0.0660 
     19 N          28.0165    0.3624   -5.3724 N.am      5 UNK        -0.4015 
     20 C          27.7374   -0.2554   -6.5307 C.2       4 UNK         0.4946 
     21 O          27.8831    0.2774   -7.6310 O.2       4 UNK        -0.5353 
     22 CA         27.1714   -1.6819   -6.4687 C.3       4 UNK         0.0277 
     23 CB         28.2809   -2.7119   -6.2173 C.3       4 UNK        -0.1981 
     24 N          26.1201   -1.8268   -5.4622 N.am      4 UNK        -0.4209 
     25 C          24.8985   -1.2798   -5.5710 C.2       3 UNK         0.4942 
     26 O          24.5425   -0.6028   -6.5332 O.2       3 UNK        -0.5208 
     27 CA         23.9085   -1.4890   -4.4095 C.3       3 UNK         0.0250 
     28 CB         23.0086   -2.7023   -4.6860 C.3       3 UNK        -0.1990 
     29 N          24.5643   -1.6433   -3.1106 N.am      3 UNK        -0.4232 
     30 C          25.3486   -0.7113   -2.5480 C.2       2 UNK         0.4993 
     31 O          25.5042    0.4142   -3.0234 O.2       2 UNK        -0.5286 
     32 CA         26.1338   -1.1097   -1.2835 C.3       2 UNK         0.0209 
     33 CB         25.4687   -0.5231   -0.0289 C.3       2 UNK        -0.1931 
     34 N          26.3250   -2.5535   -1.1028 N.am      2 UNK        -0.4546 
     35 C          26.9224   -3.3748   -1.9791 C.2       1 UNK         0.5154 
     36 O          27.3571   -3.0123   -3.0745 O.2       1 UNK        -0.5181 
     37 C          27.2602    2.7349   -5.5780 C.2       5 UNK         0.5014 
     38 O          27.4989    3.7761   -6.1904 O.2       5 UNK        -0.5248 
     39 N          26.0231    2.3718   -5.2007 N.am      6 UNK        -0.4434 
     40 CA         24.8112    3.1211   -5.5608 C.3       6 UNK         0.0363 
     41 CB         23.5936    2.5473   -4.8218 C.3       6 UNK        -0.1936 
     42 C          24.5574    3.1559   -7.0810 C.2       6 UNK         0.5081 
     43 O          24.1797    4.2022   -7.6081 O.2       6 UNK        -0.5248 
     44 N          24.8085    2.0292   -7.7630 N.am      7 UNK        -0.4718 
     45 CA         24.7698    1.9022   -9.2243 C.3       7 UNK         0.0273 
     46 CB         24.6200    0.4157   -9.5890 C.3       7 UNK        -0.1935 
     47 C          26.0033    2.4978   -9.9319 C.2       7 UNK         0.5018 
     48 O          25.9885    2.6015  -11.1591 O.2       7 UNK        -0.5186 
     49 N          27.0406    2.8574   -9.1607 N.am      8 UNK        -0.4240 
     50 CA         28.3491    3.3637   -9.5868 C.3       8 UNK         0.0235 
     51 CB         28.2164    4.7491  -10.2549 C.3       8 UNK        -0.2000 
     52 C          29.1299    2.3457  -10.4409 C.2       8 UNK         0.4941 
     53 O          29.7123    2.7147  -11.4627 O.2       8 UNK        -0.5273 
     54 N          29.1353    1.0778  -10.0012 N.am      9 UNK        -0.4262 
     55 CA         29.8381   -0.0323  -10.6537 C.3       9 UNK         0.0264 
     56 CB         29.3633   -1.3626  -10.0468 C.3       9 UNK        -0.1955 
     57 C          31.3723    0.0735  -10.5715 C.2       9 UNK         0.5031 
     58 O          32.0492   -0.4516  -11.4564 O.2       9 UNK        -0.5390 
     59 N          31.8783    0.7490   -9.5254 N.am      10 UNK        -0.4204 
     60 CA         33.2898    1.0438   -9.2436 C.3       10 UNK         0.0237 
     61 CB         33.8406    2.0600  -10.2674 C.3       10 UNK        -0.1985 
     62 C          34.1522   -0.2291   -9.1390 C.2       10 UNK         0.4970 
     63 O          35.0606   -0.4330   -9.9472 O.2       10 UNK        -0.4914 
     64 N          33.8331   -1.0705   -8.1467 N.am      11 UNK        -0.4285 
     65 CA         34.5161   -2.3477   -7.8782 C.3       11 UNK         0.1007 
     66 C          36.0009   -2.2441   -7.4124 C.2       11 UNK         0.5703 
     67 N          36.4928   -1.0801   -7.0037 N.am      11 UNK        -0.7361 
     68 O          36.7211   -3.2397   -7.4346 O.2       11 UNK        -0.4986 
     69 C69        33.6748   -3.2620   -6.9475 C.3       12 UNK        -0.0947 
     70 S70        33.4377   -2.5936   -5.2626 S.3       12 UNK        -0.2240 
     71 C71        31.6293   -2.6445   -5.1065 C.3       12 UNK         0.0194 
     72 H72        25.5065   -7.2234   -4.4744 H         1 UNK         0.0906 
     73 H73        23.8604   -7.1991   -3.8412 H         1 UNK         0.0906 
     74 H74        24.3774   -5.9748   -5.0032 H         1 UNK         0.0906 
     75 H75        27.0496   -6.2959   -3.1352 H         1 UNK         0.3140 
     76 H76        26.3964   -5.0148   -0.6863 H         1 UNK         0.1085 
     77 H77        29.0983   -5.1342   -2.1174 H         1 UNK         0.0836 
     78 H78        28.4683   -6.3883   -1.0875 H         1 UNK         0.0836 
     79 H79        31.3193   -4.8905   -0.6393 H         1 UNK         0.0731 
     80 H80        31.3195   -3.6195    0.5526 H         1 UNK         0.0731 
     81 H81        31.4145   -4.2840   -2.9479 H         1 UNK         0.1312 
     82 H82        30.9260   -0.2090   -4.1405 H         1 UNK         0.1406 
     83 H83        30.1130   -1.3709   -0.0849 H         1 UNK         0.1631 
     84 H84        31.0032    1.4577   -1.9783 H         1 UNK         0.0717 
     85 H85        30.0533    0.9199   -0.6263 H         1 UNK         0.0717 
     86 H86        29.2893    3.2423   -3.9241 H         1 UNK         0.0934 
     87 H87        30.2783    1.8618   -4.1813 H         1 UNK         0.0934 
     88 H88        29.1183    1.9295   -6.1352 H         1 UNK         0.0739 
     89 H89        27.8585   -0.1112   -4.4935 H         1 UNK         0.3093 
     90 H90        26.7314   -1.8997   -7.4445 H         1 UNK         0.0818 
     91 H91        29.0554   -2.6511   -6.9817 H         1 UNK         0.0819 
     92 H92        28.7578   -2.5583   -5.2499 H         1 UNK         0.0819 
     93 H93        27.8884   -3.7287   -6.2347 H         1 UNK         0.0819 
     94 H94        26.3697   -2.3315   -4.6151 H         1 UNK         0.3041 
     95 H95        23.2717   -0.6057   -4.3487 H         1 UNK         0.0784 
     96 H96        22.4434   -2.5638   -5.6087 H         1 UNK         0.0793 
     97 H97        23.5898   -3.6174   -4.7966 H         1 UNK         0.0793 
     98 H98        22.2871   -2.8567   -3.8834 H         1 UNK         0.0793 
     99 H99        24.4968   -2.5517   -2.6687 H         1 UNK         0.3024 
    100 H100       27.1291   -0.6750   -1.3782 H         1 UNK         0.1171 
    101 H101       26.0719   -0.7017    0.8615 H         1 UNK         0.0786 
    102 H102       25.3467    0.5572   -0.1225 H         1 UNK         0.0786 
    103 H103       24.4795   -0.9501    0.1408 H         1 UNK         0.0786 
    104 H104       25.9832   -2.9423   -0.2356 H         1 UNK         0.2977 
    105 H105       25.9003    1.5446   -4.6221 H         1 UNK         0.3127 
    106 H106       24.9526    4.1509   -5.2256 H         1 UNK         0.0770 
    107 H107       23.3593    1.5389   -5.1595 H         1 UNK         0.0814 
    108 H108       22.7091    3.1605   -4.9984 H         1 UNK         0.0814 
    109 H109       23.7573    2.5147   -3.7445 H         1 UNK         0.0814 
    110 H110       25.0273    1.1817   -7.2460 H         1 UNK         0.2983 
    111 H111       23.8934    2.4372   -9.5965 H         1 UNK         0.0947 
    112 H112       24.5528    0.2790  -10.6691 H         1 UNK         0.0806 
    113 H113       23.7164   -0.0106   -9.1529 H         1 UNK         0.0806 
    114 H114       25.4703   -0.1705   -9.2372 H         1 UNK         0.0806 
    115 H115       26.9354    2.7232   -8.1636 H         1 UNK         0.3000 
    116 H116       28.9309    3.4982   -8.6737 H         1 UNK         0.0850 
    117 H117       29.1977    5.1813  -10.4548 H         1 UNK         0.0810 
    118 H118       27.6801    5.4478   -9.6127 H         1 UNK         0.0810 
    119 H119       27.6872    4.6931  -11.2066 H         1 UNK         0.0810 
    120 H120       28.6146    0.8479   -9.1532 H         1 UNK         0.3040 
    121 H121       29.5638   -0.0227  -11.7108 H         1 UNK         0.0766 
    122 H122       28.2809   -1.4706  -10.1208 H         1 UNK         0.0812 
    123 H123       29.6372   -1.4426   -8.9949 H         1 UNK         0.0812 
    124 H124       29.8116   -2.2108  -10.5659 H         1 UNK         0.0812 
    125 H125       31.2133    1.1145   -8.8590 H         1 UNK         0.3205 
    126 H126       33.3206    1.5218   -8.2632 H         1 UNK         0.0754 
    127 H127       34.8651    2.3443  -10.0235 H         1 UNK         0.0769 
    128 H128       33.2446    2.9727  -10.2787 H         1 UNK         0.0769 
    129 H129       33.8478    1.6547  -11.2799 H         1 UNK         0.0769 
    130 H130       33.0872   -0.8278   -7.5129 H         1 UNK         0.2981 
    131 H131       34.5660   -2.8620   -8.8401 H         1 UNK         0.0541 
    132 H132       35.9095   -0.2601   -6.9759 H         1 UNK         0.3459 
    133 H133       37.4554   -1.0267   -6.7106 H         1 UNK         0.3459 
    134 H134       32.7017   -3.4445   -7.4059 H         1 UNK         0.0612 
    135 H135       34.1409   -4.2449   -6.8583 H         1 UNK         0.0612 
    136 H136       31.2684   -3.6423   -5.3612 H         1 UNK         0.0624 
    137 H137       31.1893   -1.9566   -5.8299 H         1 UNK         0.0624 
@<TRIPOS>BOND
     1    1    2 1    
     2    1   72 1    
     3    1   73 1    
     4    1   74 1    
     5    2    3 2    
     6    2    4 am   BACKBONE|DICT|INTERRES
     7    4    5 1    
     8    4   75 1    
     9    5    6 1    
    10    5   35 1    
    11    5   76 1    
    12    6    7 1    
    13    6   77 1    
    14    6   78 1    
    15    7    8 1    
    16    8    9 1    
    17    8   79 1    
    18    8   80 1    
    19    9   10 ar   
    20    9   14 ar   
    21   10   11 ar   
    22   10   81 1    
    23   11   12 ar   
    24   11   71 1    
    25   12   13 ar   
    26   12   82 1    
    27   13   14 ar   
    28   13   15 1    
    29   14   83 1    
    30   15   16 1    
    31   15   84 1    
    32   15   85 1    
    33   16   17 1    
    34   17   18 1    
    35   17   86 1    
    36   17   87 1    
    37   18   19 1    
    38   18   37 1    
    39   18   88 1    
    40   19   20 am   BACKBONE|DICT|INTERRES
    41   19   89 1    
    42   20   21 2    
    43   20   22 1    
    44   22   23 1    
    45   22   24 1    
    46   22   90 1    
    47   23   91 1    
    48   23   92 1    
    49   23   93 1    
    50   24   25 am   BACKBONE|DICT|INTERRES
    51   24   94 1    
    52   25   26 2    
    53   25   27 1    
    54   27   28 1    
    55   27   29 1    
    56   27   95 1    
    57   28   96 1    
    58   28   97 1    
    59   28   98 1    
    60   29   30 am   BACKBONE|DICT|INTERRES
    61   29   99 1    
    62   30   31 2    
    63   30   32 1    
    64   32   33 1    
    65   32   34 1    
    66   32  100 1    
    67   33  101 1    
    68   33  102 1    
    69   33  103 1    
    70   34   35 am   BACKBONE|DICT|INTERRES
    71   34  104 1    
    72   35   36 2    
    73   37   38 2    
    74   37   39 am   BACKBONE|DICT|INTERRES
    75   39   40 1    
    76   39  105 1    
    77   40   41 1    
    78   40   42 1    
    79   40  106 1    
    80   41  107 1    
    81   41  108 1    
    82   41  109 1    
    83   42   43 2    
    84   42   44 am   BACKBONE|DICT|INTERRES
    85   44   45 1    
    86   44  110 1    
    87   45   46 1    
    88   45   47 1    
    89   45  111 1    
    90   46  112 1    
    91   46  113 1    
    92   46  114 1    
    93   47   48 2    
    94   47   49 am   BACKBONE|DICT|INTERRES
    95   49   50 1    
    96   49  115 1    
    97   50   51 1    
    98   50   52 1    
    99   50  116 1    
   100   51  117 1    
   101   51  118 1    
   102   51  119 1    
   103   52   53 2    
   104   52   54 am   BACKBONE|DICT|INTERRES
   105   54   55 1    
   106   54  120 1    
   107   55   56 1    
   108   55   57 1    
   109   55  121 1    
   110   56  122 1    
   111   56  123 1    
   112   56  124 1    
   113   57   58 2    
   114   57   59 am   BACKBONE|DICT|INTERRES
   115   59   60 1    
   116   59  125 1    
   117   60   61 1    
   118   60   62 1    
   119   60  126 1    
   120   61  127 1    
   121   61  128 1    
   122   61  129 1    
   123   62   63 2    
   124   62   64 am   BACKBONE|DICT|INTERRES
   125   64   65 1    
   126   64  130 1    
   127   65   66 1    
   128   65   69 1    
   129   65  131 1    
   130   66   67 am   BACKBONE|DICT|INTERRES
   131   66   68 2    
   132   67  132 1    
   133   67  133 1    
   134   69   70 1    
   135   69  134 1    
   136   69  135 1    
   137   70   71 1    
   138   71  136 1    
   139   71  137 1    
@<TRIPOS>SUBSTRUCTURE
     1 UNK         1 GROUP             0       ****    0 ROOT    
