@<TRIPOS>MOLECULE
3R137
137   139    1
SMALL
USER_CHARGES


@<TRIPOS>ATOM
      1 CA         29.5974   -4.9781   -3.0878 C.3       0 UNK        -0.2020 
      2 C          29.1090   -4.3074   -1.8153 C.2       0 UNK         0.4855 
      3 O          28.7500   -4.9970   -0.8607 O.2       0 UNK        -0.5197 
      4 N          29.0895   -2.9679   -1.7927 N.am      1 UNK        -0.4892 
      5 CA         28.6141   -2.1650   -0.6584 C.3       1 UNK         0.0835 
      6 C6         29.1353   -0.7064   -0.7221 C.3       12 UNK        -0.0855 
      7 S7         28.5988    0.2294   -2.2000 S.3       12 UNK        -0.2931 
      8 C8         30.1742    0.5625   -3.0473 C.3       12 UNK         0.0378 
      9 C9         30.6955   -0.6737   -3.7616 C.ar      12 UNK        -0.0802 
     10 C10        31.7719   -1.3975   -3.2431 C.ar      12 UNK        -0.0944 
     11 C11        32.2558   -2.5241   -3.9145 C.ar      12 UNK        -0.0787 
     12 C12        31.6454   -2.9359   -5.1031 C.ar      12 UNK        -0.0862 
     13 C13        30.5674   -2.2188   -5.6294 C.ar      12 UNK        -0.0733 
     14 C14        30.1083   -1.0808   -4.9609 C.ar      12 UNK        -0.0832 
     15 C15        29.9273   -2.6476   -6.9415 C.3       12 UNK         0.0240 
     16 S16        28.5968   -3.8718   -6.7160 S.3       12 UNK        -0.2522 
     17 C17        27.3002   -2.9512   -5.8172 C.3       12 UNK        -0.0967 
     18 CA         26.4068   -2.0881   -6.7515 C.3       5 UNK         0.0660 
     19 N          24.9896   -2.1867   -6.4004 N.am      5 UNK        -0.4015 
     20 C          23.9751   -2.0486   -7.2652 C.2       4 UNK         0.4946 
     21 O          24.1228   -1.8908   -8.4773 O.2       4 UNK        -0.5353 
     22 CA         22.5494   -2.0841   -6.6841 C.3       4 UNK         0.0277 
     23 CB         21.9887   -3.5149   -6.7248 C.3       4 UNK        -0.1981 
     24 N          22.4680   -1.5701   -5.3141 N.am      4 UNK        -0.4209 
     25 C          22.6561   -0.2871   -4.9739 C.2       3 UNK         0.4942 
     26 O          22.8686    0.6130   -5.7863 O.2       3 UNK        -0.5208 
     27 CA         22.6441    0.0411   -3.4692 C.3       3 UNK         0.0250 
     28 CB         21.2132    0.3550   -3.0034 C.3       3 UNK        -0.1990 
     29 N          23.2252   -0.9923   -2.5992 N.am      3 UNK        -0.4232 
     30 C          24.4535   -1.5159   -2.7189 C.2       2 UNK         0.4993 
     31 O          25.2140   -1.2813   -3.6621 O.2       2 UNK        -0.5286 
     32 CA         24.8905   -2.5069   -1.6362 C.3       2 UNK         0.0209 
     33 CB         24.4264   -3.9279   -1.9967 C.3       2 UNK        -0.1931 
     34 N          26.3490   -2.4918   -1.5618 N.am      2 UNK        -0.4546 
     35 C          27.0799   -2.2254   -0.4728 C.2       1 UNK         0.5154 
     36 O          26.5974   -2.0359    0.6454 O.2       1 UNK        -0.5181 
     37 C          26.8431   -0.6109   -6.7580 C.2       5 UNK         0.5014 
     38 O          27.5672   -0.1968   -7.6610 O.2       5 UNK        -0.5248 
     39 N          26.3783    0.1698   -5.7699 N.am      6 UNK        -0.4434 
     40 CA         26.6692    1.5989   -5.5876 C.3       6 UNK         0.0363 
     41 CB         25.9838    2.0902   -4.3030 C.3       6 UNK        -0.1936 
     42 C          26.2645    2.5003   -6.7713 C.2       6 UNK         0.5081 
     43 O          26.7861    3.6089   -6.8882 O.2       6 UNK        -0.5248 
     44 N          25.3523    2.0171   -7.6250 N.am      7 UNK        -0.4718 
     45 CA         24.9688    2.6401   -8.8925 C.3       7 UNK         0.0273 
     46 CB         23.6806    1.9696   -9.3974 C.3       7 UNK        -0.1935 
     47 C          26.0688    2.5777   -9.9736 C.2       7 UNK         0.5018 
     48 O          26.0168    3.3691  -10.9167 O.2       7 UNK        -0.5186 
     49 N          27.0239    1.6462   -9.8397 N.am      8 UNK        -0.4240 
     50 CA         28.1762    1.4827  -10.7278 C.3       8 UNK         0.0235 
     51 CB         28.4857   -0.0225  -10.8557 C.3       8 UNK        -0.2000 
     52 C          29.3918    2.2731  -10.2052 C.2       8 UNK         0.4941 
     53 O          29.2844    3.0208   -9.2313 O.2       8 UNK        -0.5273 
     54 N          30.5453    2.0859  -10.8623 N.am      9 UNK        -0.4262 
     55 CA         31.8236    2.7320  -10.5331 C.3       9 UNK         0.0264 
     56 CB         32.7976    2.5263  -11.7062 C.3       9 UNK        -0.1955 
     57 C          32.4694    2.2650   -9.2098 C.2       9 UNK         0.5031 
     58 O          33.4042    2.9225   -8.7490 O.2       9 UNK        -0.5390 
     59 N          31.9679    1.1578   -8.6406 N.am      10 UNK        -0.4204 
     60 CA         32.4136    0.4632   -7.4246 C.3       10 UNK         0.0237 
     61 CB         32.4256    1.4046   -6.1999 C.3       10 UNK        -0.1985 
     62 C          33.7484   -0.2857   -7.5975 C.2       10 UNK         0.4970 
     63 O          34.4076   -0.1649   -8.6332 O.2       10 UNK        -0.4914 
     64 N          34.0989   -1.0921   -6.5875 N.am      11 UNK        -0.4285 
     65 CA         35.3506   -1.8594   -6.5314 C.3       11 UNK         0.1007 
     66 C          36.6149   -0.9719   -6.3411 C.2       11 UNK         0.5703 
     67 N          37.7856   -1.4804   -6.7029 N.am      11 UNK        -0.7361 
     68 O          36.5530    0.1548   -5.8510 O.2       11 UNK        -0.4986 
     69 C69        35.2709   -3.0198   -5.5018 C.3       12 UNK        -0.0947 
     70 S70        35.0183   -2.4967   -3.7679 S.3       12 UNK        -0.2240 
     71 C71        33.4368   -3.2934   -3.3462 C.3       12 UNK         0.0194 
     72 H72        29.0220   -5.8815   -3.2880 H         1 UNK         0.0906 
     73 H73        29.4897   -4.3198   -3.9465 H         1 UNK         0.0906 
     74 H74        30.6474   -5.2531   -2.9919 H         1 UNK         0.0906 
     75 H75        29.4243   -2.4401   -2.5886 H         1 UNK         0.3140 
     76 H76        29.0365   -2.6101    0.2457 H         1 UNK         0.1085 
     77 H77        28.8121   -0.1538    0.1623 H         1 UNK         0.0836 
     78 H78        30.2249   -0.7114   -0.6714 H         1 UNK         0.0836 
     79 H79        30.9064    0.9452   -2.3347 H         1 UNK         0.0731 
     80 H80        30.0172    1.3587   -3.7767 H         1 UNK         0.0731 
     81 H81        32.2416   -1.0809   -2.3216 H         1 UNK         0.1312 
     82 H82        32.0099   -3.8121   -5.6219 H         1 UNK         0.1406 
     83 H83        29.2928   -0.5036   -5.3715 H         1 UNK         0.1631 
     84 H84        30.6887   -3.0868   -7.5878 H         1 UNK         0.0717 
     85 H85        29.5491   -1.7835   -7.4853 H         1 UNK         0.0717 
     86 H86        26.6928   -3.7163   -5.3306 H         1 UNK         0.0934 
     87 H87        27.7262   -2.3811   -4.9909 H         1 UNK         0.0934 
     88 H88        26.5176   -2.4577   -7.7736 H         1 UNK         0.0739 
     89 H89        24.7826   -2.2238   -5.4094 H         1 UNK         0.3093 
     90 H90        21.9225   -1.4529   -7.3181 H         1 UNK         0.0818 
     91 H91        22.0143   -3.9144   -7.7398 H         1 UNK         0.0819 
     92 H92        22.5629   -4.1940   -6.0932 H         1 UNK         0.0819 
     93 H93        20.9503   -3.5442   -6.3942 H         1 UNK         0.0819 
     94 H94        22.2875   -2.2395   -4.5801 H         1 UNK         0.3041 
     95 H95        23.2436    0.9417   -3.3315 H         1 UNK         0.0784 
     96 H96        20.7644    1.1361   -3.6192 H         1 UNK         0.0793 
     97 H97        20.5659   -0.5207   -3.0653 H         1 UNK         0.0793 
     98 H98        21.1993    0.7119   -1.9734 H         1 UNK         0.0793 
     99 H99        22.6616   -1.2699   -1.8081 H         1 UNK         0.3024 
    100 H100       24.4510   -2.2061   -0.6824 H         1 UNK         0.1171 
    101 H101       23.3386   -3.9862   -2.0508 H         1 UNK         0.0786 
    102 H102       24.8212   -4.2510   -2.9610 H         1 UNK         0.0786 
    103 H103       24.7514   -4.6493   -1.2466 H         1 UNK         0.0786 
    104 H104       26.8265   -2.5338   -2.4508 H         1 UNK         0.2977 
    105 H105       25.8336   -0.2716   -5.0304 H         1 UNK         0.3127 
    106 H106       27.7495    1.6919   -5.4598 H         1 UNK         0.0770 
    107 H107       24.9015    2.1304   -4.4227 H         1 UNK         0.0814 
    108 H108       26.3184    3.0957   -4.0456 H         1 UNK         0.0814 
    109 H109       26.2047    1.4463   -3.4524 H         1 UNK         0.0814 
    110 H110       24.9359    1.1211   -7.4119 H         1 UNK         0.2983 
    111 H111       24.7583    3.6949   -8.7028 H         1 UNK         0.0947 
    112 H112       23.8309    0.9072   -9.5955 H         1 UNK         0.0806 
    113 H113       23.3371    2.4300  -10.3248 H         1 UNK         0.0806 
    114 H114       22.8732    2.0632   -8.6705 H         1 UNK         0.0806 
    115 H115       27.0386    1.0769   -8.9972 H         1 UNK         0.3000 
    116 H116       27.9299    1.8682  -11.7194 H         1 UNK         0.0850 
    117 H117       29.2175   -0.2171  -11.6401 H         1 UNK         0.0810 
    118 H118       27.5903   -0.5888  -11.1135 H         1 UNK         0.0810 
    119 H119       28.8818   -0.4372   -9.9283 H         1 UNK         0.0810 
    120 H120       30.5519    1.4635  -11.6580 H         1 UNK         0.3040 
    121 H121       31.6369    3.8034  -10.4322 H         1 UNK         0.0766 
    122 H122       32.3952    2.9315  -12.6349 H         1 UNK         0.0812 
    123 H123       33.0196    1.4703  -11.8654 H         1 UNK         0.0812 
    124 H124       33.7462    3.0322  -11.5203 H         1 UNK         0.0812 
    125 H125       31.2161    0.7052   -9.1386 H         1 UNK         0.3205 
    126 H126       31.6580   -0.2995   -7.2492 H         1 UNK         0.0754 
    127 H127       32.6018    0.8533   -5.2764 H         1 UNK         0.0769 
    128 H128       31.4715    1.9200   -6.0888 H         1 UNK         0.0769 
    129 H129       33.2095    2.1587   -6.2712 H         1 UNK         0.0769 
    130 H130       33.5236   -1.1345   -5.7584 H         1 UNK         0.2981 
    131 H131       35.4611   -2.3274   -7.5119 H         1 UNK         0.0541 
    132 H132       38.6185   -0.9262   -6.5788 H         1 UNK         0.3459 
    133 H133       37.8543   -2.4053   -7.0981 H         1 UNK         0.3459 
    134 H134       34.4734   -3.7037   -5.7932 H         1 UNK         0.0612 
    135 H135       36.1832   -3.6174   -5.5381 H         1 UNK         0.0612 
    136 H136       33.4356   -4.3275   -3.6945 H         1 UNK         0.0624 
    137 H137       33.3483   -3.3403   -2.2598 H         1 UNK         0.0624 
@<TRIPOS>BOND
     1    1    2 1    
     2    1   72 1    
     3    1   73 1    
     4    1   74 1    
     5    2    3 2    
     6    2    4 am   BACKBONE|DICT|INTERRES
     7    4    5 1    
     8    4   75 1    
     9    5    6 1    
    10    5   35 1    
    11    5   76 1    
    12    6    7 1    
    13    6   77 1    
    14    6   78 1    
    15    7    8 1    
    16    8    9 1    
    17    8   79 1    
    18    8   80 1    
    19    9   10 ar   
    20    9   14 ar   
    21   10   11 ar   
    22   10   81 1    
    23   11   12 ar   
    24   11   71 1    
    25   12   13 ar   
    26   12   82 1    
    27   13   14 ar   
    28   13   15 1    
    29   14   83 1    
    30   15   16 1    
    31   15   84 1    
    32   15   85 1    
    33   16   17 1    
    34   17   18 1    
    35   17   86 1    
    36   17   87 1    
    37   18   19 1    
    38   18   37 1    
    39   18   88 1    
    40   19   20 am   BACKBONE|DICT|INTERRES
    41   19   89 1    
    42   20   21 2    
    43   20   22 1    
    44   22   23 1    
    45   22   24 1    
    46   22   90 1    
    47   23   91 1    
    48   23   92 1    
    49   23   93 1    
    50   24   25 am   BACKBONE|DICT|INTERRES
    51   24   94 1    
    52   25   26 2    
    53   25   27 1    
    54   27   28 1    
    55   27   29 1    
    56   27   95 1    
    57   28   96 1    
    58   28   97 1    
    59   28   98 1    
    60   29   30 am   BACKBONE|DICT|INTERRES
    61   29   99 1    
    62   30   31 2    
    63   30   32 1    
    64   32   33 1    
    65   32   34 1    
    66   32  100 1    
    67   33  101 1    
    68   33  102 1    
    69   33  103 1    
    70   34   35 am   BACKBONE|DICT|INTERRES
    71   34  104 1    
    72   35   36 2    
    73   37   38 2    
    74   37   39 am   BACKBONE|DICT|INTERRES
    75   39   40 1    
    76   39  105 1    
    77   40   41 1    
    78   40   42 1    
    79   40  106 1    
    80   41  107 1    
    81   41  108 1    
    82   41  109 1    
    83   42   43 2    
    84   42   44 am   BACKBONE|DICT|INTERRES
    85   44   45 1    
    86   44  110 1    
    87   45   46 1    
    88   45   47 1    
    89   45  111 1    
    90   46  112 1    
    91   46  113 1    
    92   46  114 1    
    93   47   48 2    
    94   47   49 am   BACKBONE|DICT|INTERRES
    95   49   50 1    
    96   49  115 1    
    97   50   51 1    
    98   50   52 1    
    99   50  116 1    
   100   51  117 1    
   101   51  118 1    
   102   51  119 1    
   103   52   53 2    
   104   52   54 am   BACKBONE|DICT|INTERRES
   105   54   55 1    
   106   54  120 1    
   107   55   56 1    
   108   55   57 1    
   109   55  121 1    
   110   56  122 1    
   111   56  123 1    
   112   56  124 1    
   113   57   58 2    
   114   57   59 am   BACKBONE|DICT|INTERRES
   115   59   60 1    
   116   59  125 1    
   117   60   61 1    
   118   60   62 1    
   119   60  126 1    
   120   61  127 1    
   121   61  128 1    
   122   61  129 1    
   123   62   63 2    
   124   62   64 am   BACKBONE|DICT|INTERRES
   125   64   65 1    
   126   64  130 1    
   127   65   66 1    
   128   65   69 1    
   129   65  131 1    
   130   66   67 am   BACKBONE|DICT|INTERRES
   131   66   68 2    
   132   67  132 1    
   133   67  133 1    
   134   69   70 1    
   135   69  134 1    
   136   69  135 1    
   137   70   71 1    
   138   71  136 1    
   139   71  137 1    
@<TRIPOS>SUBSTRUCTURE
     1 UNK         1 GROUP             0       ****    0 ROOT    
