@<TRIPOS>MOLECULE
3R137
137   139    1
SMALL
USER_CHARGES


@<TRIPOS>ATOM
      1 CA         27.3620   -6.7494   -0.0042 C.3       0 UNK        -0.2020 
      2 C          26.8105   -5.8375   -1.0903 C.2       0 UNK         0.4855 
      3 O          25.6725   -6.0276   -1.5189 O.2       0 UNK        -0.5197 
      4 N          27.6149   -4.8579   -1.5279 N.am      1 UNK        -0.4892 
      5 CA         27.3110   -3.8525   -2.5566 C.3       1 UNK         0.0835 
      6 C6         27.1359   -4.4419   -3.9858 C.3       12 UNK        -0.0855 
      7 S7         28.5594   -5.4197   -4.5855 S.3       12 UNK        -0.2931 
      8 C8         29.2984   -4.3193   -5.8398 C.3       12 UNK         0.0378 
      9 C9         30.3598   -3.4218   -5.2229 C.ar      12 UNK        -0.0802 
     10 C10        31.7130   -3.7474   -5.3377 C.ar      12 UNK        -0.0944 
     11 C11        32.6874   -2.9580   -4.7209 C.ar      12 UNK        -0.0787 
     12 C12        32.2954   -1.8407   -3.9763 C.ar      12 UNK        -0.0862 
     13 C13        30.9435   -1.5013   -3.8466 C.ar      12 UNK        -0.0733 
     14 C14        29.9859   -2.2869   -4.5025 C.ar      12 UNK        -0.0832 
     15 C15        30.5745   -0.3225   -2.9414 C.3       12 UNK         0.0240 
     16 S16        28.7870   -0.0915   -2.6289 S.3       12 UNK        -0.2522 
     17 C17        28.3333    1.1790   -3.8552 C.3       12 UNK        -0.0967 
     18 CA         27.7663    0.5995   -5.1735 C.3       5 UNK         0.0660 
     19 N          26.5031   -0.1358   -5.0055 N.am      5 UNK        -0.4015 
     20 C          25.8955   -0.7982   -6.0073 C.2       4 UNK         0.4946 
     21 O          26.4264   -0.9790   -7.1032 O.2       4 UNK        -0.5353 
     22 CA         24.4414   -1.2689   -5.8240 C.3       4 UNK         0.0277 
     23 CB         24.2787   -2.7761   -6.0833 C.3       4 UNK        -0.1981 
     24 N          23.8601   -0.9087   -4.5300 N.am      4 UNK        -0.4209 
     25 C          23.3846    0.3108   -4.2341 C.2       3 UNK         0.4942 
     26 O          23.3965    1.2523   -5.0285 O.2       3 UNK        -0.5208 
     27 CA         22.8417    0.5380   -2.8101 C.3       3 UNK         0.0250 
     28 CB         21.3203    0.3226   -2.7759 C.3       3 UNK        -0.1990 
     29 N          23.4747   -0.3055   -1.7910 N.am      3 UNK        -0.4232 
     30 C          24.7777   -0.2740   -1.4785 C.2       2 UNK         0.4993 
     31 O          25.5755    0.4996   -2.0078 O.2       2 UNK        -0.5286 
     32 CA         25.2961   -1.2995   -0.4475 C.3       2 UNK         0.0209 
     33 CB         24.1816   -2.1003    0.2650 C.3       2 UNK        -0.1931 
     34 N          26.2788   -2.2213   -1.0369 N.am      2 UNK        -0.4546 
     35 C          26.1139   -2.9661   -2.1419 C.2       1 UNK         0.5154 
     36 O          25.0725   -2.9801   -2.8024 O.2       1 UNK        -0.5181 
     37 C          27.6454    1.7208   -6.2257 C.2       5 UNK         0.5014 
     38 O          28.6163    1.9672   -6.9388 O.2       5 UNK        -0.5248 
     39 N          26.4647    2.3492   -6.3403 N.am      6 UNK        -0.4434 
     40 CA         26.1652    3.3472   -7.3701 C.3       6 UNK         0.0363 
     41 CB         24.8199    4.0206   -7.0562 C.3       6 UNK        -0.1936 
     42 C          26.1566    2.7531   -8.7901 C.2       6 UNK         0.5081 
     43 O          26.6481    3.3957   -9.7173 O.2       6 UNK        -0.5248 
     44 N          25.6245    1.5306   -8.9301 N.am      7 UNK        -0.4718 
     45 CA         25.5913    0.7789  -10.1874 C.3       7 UNK         0.0273 
     46 CB         24.5560   -0.3531  -10.0835 C.3       7 UNK        -0.1935 
     47 C          26.9733    0.2228  -10.5665 C.2       7 UNK         0.5018 
     48 O          27.3492    0.2760  -11.7375 O.2       7 UNK        -0.5186 
     49 N          27.7111   -0.2770   -9.5659 N.am      8 UNK        -0.4240 
     50 CA         29.0662   -0.8165   -9.7053 C.3       8 UNK         0.0235 
     51 CB         29.3554   -1.7328   -8.5036 C.3       8 UNK        -0.2000 
     52 C          30.1641    0.2564   -9.8338 C.2       8 UNK         0.4941 
     53 O          31.3251   -0.1147  -10.0093 O.2       8 UNK        -0.5273 
     54 N          29.8093    1.5445   -9.6908 N.am      9 UNK        -0.4262 
     55 CA         30.7007    2.7149   -9.6469 C.3       9 UNK         0.0264 
     56 CB         31.3171    2.9821  -11.0359 C.3       9 UNK        -0.1955 
     57 C          31.7607    2.5988   -8.5316 C.2       9 UNK         0.5031 
     58 O          32.9343    2.9113   -8.7482 O.2       9 UNK        -0.5390 
     59 N          31.3211    2.0783   -7.3757 N.am      10 UNK        -0.4204 
     60 CA         32.0973    1.6976   -6.1910 C.3       10 UNK         0.0237 
     61 CB         32.4804    2.9554   -5.3853 C.3       10 UNK        -0.1985 
     62 C          33.3050    0.7870   -6.5006 C.2       10 UNK         0.4970 
     63 O          34.3351    0.9128   -5.8377 O.2       10 UNK        -0.4914 
     64 N          33.1568   -0.0703   -7.5242 N.am      11 UNK        -0.4285 
     65 CA         34.1875   -0.9146   -8.1522 C.3       11 UNK         0.1007 
     66 C          35.4704   -0.1723   -8.6410 C.2       11 UNK         0.5703 
     67 N          35.4133    1.1279   -8.9118 N.am      11 UNK        -0.7361 
     68 O          36.5213   -0.7830   -8.8236 O.2       11 UNK        -0.4986 
     69 C69        34.4342   -2.2731   -7.4284 C.3       12 UNK        -0.0947 
     70 S70        35.1654   -2.1692   -5.7586 S.3       12 UNK        -0.2240 
     71 C71        34.1568   -3.3532   -4.8109 C.3       12 UNK         0.0194 
     72 H72        27.3752   -7.7816   -0.3531 H         1 UNK         0.0906 
     73 H73        28.3772   -6.4769    0.2837 H         1 UNK         0.0906 
     74 H74        26.7327   -6.6981    0.8840 H         1 UNK         0.0906 
     75 H75        28.5383   -4.7807   -1.1240 H         1 UNK         0.3140 
     76 H76        28.1757   -3.1903   -2.5791 H         1 UNK         0.1085 
     77 H77        26.9443   -3.6362   -4.6948 H         1 UNK         0.0836 
     78 H78        26.2555   -5.0860   -4.0243 H         1 UNK         0.0836 
     79 H79        29.7408   -4.9350   -6.6245 H         1 UNK         0.0731 
     80 H80        28.5290   -3.7205   -6.3283 H         1 UNK         0.0731 
     81 H81        32.0063   -4.6296   -5.8904 H         1 UNK         0.1312 
     82 H82        33.0497   -1.2462   -3.4784 H         1 UNK         0.1406 
     83 H83        28.9352   -2.0561   -4.4283 H         1 UNK         0.1631 
     84 H84        31.0140    0.5958   -3.3299 H         1 UNK         0.0717 
     85 H85        31.0457   -0.4875   -1.9714 H         1 UNK         0.0717 
     86 H86        29.2076    1.8041   -4.0483 H         1 UNK         0.0934 
     87 H87        27.5997    1.8403   -3.3898 H         1 UNK         0.0934 
     88 H88        28.4988   -0.1028   -5.5720 H         1 UNK         0.0739 
     89 H89        26.0329   -0.0244   -4.1142 H         1 UNK         0.3093 
     90 H90        23.8693   -0.7589   -6.6021 H         1 UNK         0.0818 
     91 H91        23.2255   -3.0545   -6.1192 H         1 UNK         0.0819 
     92 H92        24.7178   -3.0620   -7.0403 H         1 UNK         0.0819 
     93 H93        24.7513   -3.3827   -5.3151 H         1 UNK         0.0819 
     94 H94        23.9031   -1.6184   -3.8043 H         1 UNK         0.3041 
     95 H95        23.0455    1.5787   -2.5491 H         1 UNK         0.0784 
     96 H96        20.8199    0.9581   -3.5081 H         1 UNK         0.0793 
     97 H97        21.0529   -0.7101   -3.0040 H         1 UNK         0.0793 
     98 H98        20.9055    0.5702   -1.7985 H         1 UNK         0.0793 
     99 H99        22.8882   -0.9878   -1.3326 H         1 UNK         0.3024 
    100 H100       25.8241   -0.7175    0.3097 H         1 UNK         0.1171 
    101 H101       24.6018   -2.7450    1.0371 H         1 UNK         0.0786 
    102 H102       23.6258   -2.7391   -0.4227 H         1 UNK         0.0786 
    103 H103       23.4702   -1.4380    0.7603 H         1 UNK         0.0786 
    104 H104       27.1753   -2.2548   -0.5720 H         1 UNK         0.2977 
    105 H105       25.7066    2.0905   -5.7227 H         1 UNK         0.3127 
    106 H106       26.9456    4.1108   -7.3360 H         1 UNK         0.0770 
    107 H107       23.9994    3.3017   -7.0448 H         1 UNK         0.0814 
    108 H108       24.5796    4.7788   -7.8029 H         1 UNK         0.0814 
    109 H109       24.8420    4.5182   -6.0865 H         1 UNK         0.0814 
    110 H110       25.2773    1.0586   -8.1084 H         1 UNK         0.2983 
    111 H111       25.2760    1.4561  -10.9847 H         1 UNK         0.0947 
    112 H112       24.4909   -0.9068  -11.0212 H         1 UNK         0.0806 
    113 H113       23.5610    0.0374   -9.8697 H         1 UNK         0.0806 
    114 H114       24.8108   -1.0692   -9.3014 H         1 UNK         0.0806 
    115 H115       27.2879   -0.3481   -8.6424 H         1 UNK         0.3000 
    116 H116       29.1037   -1.4227  -10.6128 H         1 UNK         0.0850 
    117 H117       30.3316   -2.2114   -8.5934 H         1 UNK         0.0810 
    118 H118       28.6125   -2.5268   -8.4304 H         1 UNK         0.0810 
    119 H119       29.3487   -1.1799   -7.5641 H         1 UNK         0.0810 
    120 H120       28.8352    1.7352   -9.4974 H         1 UNK         0.3040 
    121 H121       30.0744    3.5699   -9.3878 H         1 UNK         0.0766 
    122 H122       31.8888    3.9109  -11.0373 H         1 UNK         0.0812 
    123 H123       30.5458    3.0751  -11.8003 H         1 UNK         0.0812 
    124 H124       31.9950    2.1831  -11.3380 H         1 UNK         0.0812 
    125 H125       30.3138    1.9201   -7.3012 H         1 UNK         0.3205 
    126 H126       31.4243    1.0987   -5.5779 H         1 UNK         0.0754 
    127 H127       32.9523    2.6892   -4.4387 H         1 UNK         0.0769 
    128 H128       31.6022    3.5565   -5.1493 H         1 UNK         0.0769 
    129 H129       33.1803    3.5849   -5.9360 H         1 UNK         0.0769 
    130 H130       32.2900   -0.0339   -8.0449 H         1 UNK         0.2981 
    131 H131       33.7220   -1.1949   -9.0975 H         1 UNK         0.0541 
    132 H132       36.2409    1.5982   -9.2406 H         1 UNK         0.3459 
    133 H133       34.5517    1.6495   -8.7881 H         1 UNK         0.3459 
    134 H134       35.0820   -2.9087   -8.0341 H         1 UNK         0.0612 
    135 H135       33.4883   -2.8111   -7.3711 H         1 UNK         0.0612 
    136 H136       34.2672   -4.3427   -5.2572 H         1 UNK         0.0624 
    137 H137       34.5650   -3.4278   -3.8021 H         1 UNK         0.0624 
@<TRIPOS>BOND
     1    1    2 1    
     2    1   72 1    
     3    1   73 1    
     4    1   74 1    
     5    2    3 2    
     6    2    4 am   BACKBONE|DICT|INTERRES
     7    4    5 1    
     8    4   75 1    
     9    5    6 1    
    10    5   35 1    
    11    5   76 1    
    12    6    7 1    
    13    6   77 1    
    14    6   78 1    
    15    7    8 1    
    16    8    9 1    
    17    8   79 1    
    18    8   80 1    
    19    9   10 ar   
    20    9   14 ar   
    21   10   11 ar   
    22   10   81 1    
    23   11   12 ar   
    24   11   71 1    
    25   12   13 ar   
    26   12   82 1    
    27   13   14 ar   
    28   13   15 1    
    29   14   83 1    
    30   15   16 1    
    31   15   84 1    
    32   15   85 1    
    33   16   17 1    
    34   17   18 1    
    35   17   86 1    
    36   17   87 1    
    37   18   19 1    
    38   18   37 1    
    39   18   88 1    
    40   19   20 am   BACKBONE|DICT|INTERRES
    41   19   89 1    
    42   20   21 2    
    43   20   22 1    
    44   22   23 1    
    45   22   24 1    
    46   22   90 1    
    47   23   91 1    
    48   23   92 1    
    49   23   93 1    
    50   24   25 am   BACKBONE|DICT|INTERRES
    51   24   94 1    
    52   25   26 2    
    53   25   27 1    
    54   27   28 1    
    55   27   29 1    
    56   27   95 1    
    57   28   96 1    
    58   28   97 1    
    59   28   98 1    
    60   29   30 am   BACKBONE|DICT|INTERRES
    61   29   99 1    
    62   30   31 2    
    63   30   32 1    
    64   32   33 1    
    65   32   34 1    
    66   32  100 1    
    67   33  101 1    
    68   33  102 1    
    69   33  103 1    
    70   34   35 am   BACKBONE|DICT|INTERRES
    71   34  104 1    
    72   35   36 2    
    73   37   38 2    
    74   37   39 am   BACKBONE|DICT|INTERRES
    75   39   40 1    
    76   39  105 1    
    77   40   41 1    
    78   40   42 1    
    79   40  106 1    
    80   41  107 1    
    81   41  108 1    
    82   41  109 1    
    83   42   43 2    
    84   42   44 am   BACKBONE|DICT|INTERRES
    85   44   45 1    
    86   44  110 1    
    87   45   46 1    
    88   45   47 1    
    89   45  111 1    
    90   46  112 1    
    91   46  113 1    
    92   46  114 1    
    93   47   48 2    
    94   47   49 am   BACKBONE|DICT|INTERRES
    95   49   50 1    
    96   49  115 1    
    97   50   51 1    
    98   50   52 1    
    99   50  116 1    
   100   51  117 1    
   101   51  118 1    
   102   51  119 1    
   103   52   53 2    
   104   52   54 am   BACKBONE|DICT|INTERRES
   105   54   55 1    
   106   54  120 1    
   107   55   56 1    
   108   55   57 1    
   109   55  121 1    
   110   56  122 1    
   111   56  123 1    
   112   56  124 1    
   113   57   58 2    
   114   57   59 am   BACKBONE|DICT|INTERRES
   115   59   60 1    
   116   59  125 1    
   117   60   61 1    
   118   60   62 1    
   119   60  126 1    
   120   61  127 1    
   121   61  128 1    
   122   61  129 1    
   123   62   63 2    
   124   62   64 am   BACKBONE|DICT|INTERRES
   125   64   65 1    
   126   64  130 1    
   127   65   66 1    
   128   65   69 1    
   129   65  131 1    
   130   66   67 am   BACKBONE|DICT|INTERRES
   131   66   68 2    
   132   67  132 1    
   133   67  133 1    
   134   69   70 1    
   135   69  134 1    
   136   69  135 1    
   137   70   71 1    
   138   71  136 1    
   139   71  137 1    
@<TRIPOS>SUBSTRUCTURE
     1 UNK         1 GROUP             0       ****    0 ROOT    
