@<TRIPOS>MOLECULE
3R137
137   139    1
SMALL
USER_CHARGES


@<TRIPOS>ATOM
      1 CA         31.3086    0.2372   -2.1406 C.3       0 UNK        -0.2020 
      2 C          30.1632   -0.7142   -2.4503 C.2       0 UNK         0.4855 
      3 O          29.4861   -0.5533   -3.4641 O.2       0 UNK        -0.5197 
      4 N          29.9086   -1.6830   -1.5612 N.am      1 UNK        -0.4892 
      5 CA         28.9108   -2.7584   -1.6988 C.3       1 UNK         0.0835 
      6 C6         29.2277   -3.9661   -0.7677 C.3       12 UNK        -0.0855 
      7 S7         30.9808   -4.4837   -0.7307 S.3       12 UNK        -0.2931 
      8 C8         31.0232   -5.8112   -1.9763 C.3       12 UNK         0.0378 
      9 C9         30.9482   -5.2510   -3.3879 C.ar      12 UNK        -0.0802 
     10 C10        32.0251   -4.5261   -3.9074 C.ar      12 UNK        -0.0944 
     11 C11        31.9600   -3.9803   -5.1915 C.ar      12 UNK        -0.0787 
     12 C12        30.8121   -4.1756   -5.9636 C.ar      12 UNK        -0.0862 
     13 C13        29.7269   -4.8956   -5.4543 C.ar      12 UNK        -0.0733 
     14 C14        29.8046   -5.4420   -4.1693 C.ar      12 UNK        -0.0832 
     15 C15        28.4610   -5.0580   -6.2852 C.3       12 UNK         0.0240 
     16 S16        27.0372   -4.1896   -5.5487 S.3       12 UNK        -0.2522 
     17 C17        27.6123   -2.4580   -5.5224 C.3       12 UNK        -0.0967 
     18 CA         26.9685   -1.5877   -6.6236 C.3       5 UNK         0.0660 
     19 N          25.5017   -1.5555   -6.5489 N.am      5 UNK        -0.4015 
     20 C          24.7078   -0.9957   -7.4755 C.2       4 UNK         0.4946 
     21 O          25.1356   -0.4073   -8.4685 O.2       4 UNK        -0.5353 
     22 CA         23.1865   -1.0671   -7.2622 C.3       4 UNK         0.0277 
     23 CB         22.6121   -2.3218   -7.9385 C.3       4 UNK        -0.1981 
     24 N          22.7844   -1.0415   -5.8549 N.am      4 UNK        -0.4209 
     25 C          22.9833   -0.0109   -5.0222 C.2       3 UNK         0.4942 
     26 O          23.5135    1.0483   -5.3619 O.2       3 UNK        -0.5208 
     27 CA         22.5554   -0.1917   -3.5518 C.3       3 UNK         0.0250 
     28 CB         21.8278   -1.5242   -3.2558 C.3       3 UNK        -0.1990 
     29 N          23.6924   -0.0188   -2.6391 N.am      3 UNK        -0.4232 
     30 C          24.8537   -0.6905   -2.6712 C.2       2 UNK         0.4993 
     31 O          25.1120   -1.5625   -3.5042 O.2       2 UNK        -0.5286 
     32 CA         25.9007   -0.2719   -1.6209 C.3       2 UNK         0.0209 
     33 CB         25.3531   -0.3650   -0.1789 C.3       2 UNK        -0.1931 
     34 N          27.1751   -0.9925   -1.7471 N.am      2 UNK        -0.4546 
     35 C          27.4429   -2.2852   -1.5061 C.2       1 UNK         0.5154 
     36 O          26.5990   -3.0904   -1.1065 O.2       1 UNK        -0.5181 
     37 C          27.5842   -0.1777   -6.5967 C.2       5 UNK         0.5014 
     38 O          28.5647    0.0634   -7.3026 O.2       5 UNK        -0.5248 
     39 N          26.9687    0.7387   -5.8354 N.am      6 UNK        -0.4434 
     40 CA         27.3718    2.1423   -5.7358 C.3       6 UNK         0.0363 
     41 CB         26.5693    2.8253   -4.6178 C.3       6 UNK        -0.1936 
     42 C          27.2305    2.9183   -7.0593 C.2       6 UNK         0.5081 
     43 O          27.9486    3.8981   -7.2560 O.2       6 UNK        -0.5248 
     44 N          26.3257    2.4686   -7.9392 N.am      7 UNK        -0.4718 
     45 CA         26.1404    3.0100   -9.2838 C.3       7 UNK         0.0273 
     46 CB         24.6434    2.9949   -9.6365 C.3       7 UNK        -0.1935 
     47 C          26.9502    2.2172  -10.3207 C.2       7 UNK         0.5018 
     48 O          27.6083    2.8271  -11.1639 O.2       7 UNK        -0.5186 
     49 N          26.8670    0.8801  -10.2602 N.am      8 UNK        -0.4240 
     50 CA         27.4456   -0.0333  -11.2470 C.3       8 UNK         0.0235 
     51 CB         26.8161   -1.4270  -11.0844 C.3       8 UNK        -0.2000 
     52 C          28.9774   -0.1301  -11.1907 C.2       8 UNK         0.4941 
     53 O          29.6079   -0.1804  -12.2480 O.2       8 UNK        -0.5273 
     54 N          29.5420   -0.1829   -9.9779 N.am      9 UNK        -0.4262 
     55 CA         30.9762   -0.3617   -9.7404 C.3       9 UNK         0.0264 
     56 CB         31.1977   -1.6256   -8.8923 C.3       9 UNK        -0.1955 
     57 C          31.5962    0.8517   -9.0400 C.2       9 UNK         0.5031 
     58 O          32.7283    1.2131   -9.3666 O.2       9 UNK        -0.5390 
     59 N          30.8731    1.4327   -8.0708 N.am      10 UNK        -0.4204 
     60 CA         31.2757    2.4998   -7.1435 C.3       10 UNK         0.0237 
     61 CB         31.6906    3.7926   -7.8740 C.3       10 UNK        -0.1985 
     62 C          32.3342    2.0375   -6.1268 C.2       10 UNK         0.4970 
     63 O          32.0811    2.1374   -4.9268 O.2       10 UNK        -0.4914 
     64 N          33.4575    1.5155   -6.6406 N.am      11 UNK        -0.4285 
     65 CA         34.5690    0.8338   -5.9568 C.3       11 UNK         0.1007 
     66 C          34.9871    1.4268   -4.5766 C.2       11 UNK         0.5703 
     67 N          35.1464    0.6175   -3.5371 N.am      11 UNK        -0.7361 
     68 O          35.2383    2.6255   -4.4654 O.2       11 UNK        -0.4986 
     69 C69        34.4461   -0.7182   -6.0381 C.3       12 UNK        -0.0947 
     70 S70        32.9471   -1.4152   -5.2702 S.3       12 UNK        -0.2240 
     71 C71        33.1205   -3.1629   -5.7341 C.3       12 UNK         0.0194 
     72 H72        30.9449    1.2637   -2.1055 H         1 UNK         0.0906 
     73 H73        31.7845    0.0100   -1.1871 H         1 UNK         0.0906 
     74 H74        32.0667    0.1778   -2.9202 H         1 UNK         0.0906 
     75 H75        30.4918   -1.7583   -0.7396 H         1 UNK         0.3140 
     76 H76        28.9717   -3.1150   -2.7290 H         1 UNK         0.1085 
     77 H77        28.9536   -3.7240    0.2612 H         1 UNK         0.0836 
     78 H78        28.6133   -4.8260   -1.0415 H         1 UNK         0.0836 
     79 H79        30.2177   -6.5226   -1.7874 H         1 UNK         0.0731 
     80 H80        31.9545   -6.3685   -1.8646 H         1 UNK         0.0731 
     81 H81        32.9061   -4.3672   -3.3003 H         1 UNK         0.1312 
     82 H82        30.7565   -3.7483   -6.9544 H         1 UNK         0.1406 
     83 H83        28.9625   -5.9928   -3.7723 H         1 UNK         0.1631 
     84 H84        28.2225   -6.1188   -6.3720 H         1 UNK         0.0717 
     85 H85        28.6104   -4.6920   -7.3023 H         1 UNK         0.0717 
     86 H86        27.3935   -2.0479   -4.5370 H         1 UNK         0.0934 
     87 H87        28.6993   -2.4256   -5.6057 H         1 UNK         0.0934 
     88 H88        27.2292   -2.0272   -7.5886 H         1 UNK         0.0739 
     89 H89        25.0912   -1.9651   -5.7179 H         1 UNK         0.3093 
     90 H90        22.7513   -0.1899   -7.7460 H         1 UNK         0.0818 
     91 H91        21.5237   -2.3417   -7.8812 H         1 UNK         0.0819 
     92 H92        22.8792   -2.3504   -8.9961 H         1 UNK         0.0819 
     93 H93        22.9910   -3.2374   -7.4824 H         1 UNK         0.0819 
     94 H94        22.3598   -1.8795   -5.4846 H         1 UNK         0.3041 
     95 H95        21.8579    0.6200   -3.3394 H         1 UNK         0.0784 
     96 H96        20.9334   -1.6347   -3.8704 H         1 UNK         0.0793 
     97 H97        22.4656   -2.3922   -3.4283 H         1 UNK         0.0793 
     98 H98        21.5014   -1.5642   -2.2164 H         1 UNK         0.0793 
     99 H99        23.5834    0.7136   -1.9518 H         1 UNK         0.3024 
    100 H100       26.1356    0.7744   -1.8208 H         1 UNK         0.1171 
    101 H101       24.5370    0.3391   -0.0148 H         1 UNK         0.0786 
    102 H102       24.9694   -1.3604    0.0474 H         1 UNK         0.0786 
    103 H103       26.1254   -0.1307    0.5539 H         1 UNK         0.0786 
    104 H104       27.9347   -0.4673   -2.1669 H         1 UNK         0.2977 
    105 H105       26.1413    0.4624   -5.3249 H         1 UNK         0.3127 
    106 H106       28.4255    2.1592   -5.4520 H         1 UNK         0.0770 
    107 H107       25.4987    2.8165   -4.8249 H         1 UNK         0.0814 
    108 H108       26.8699    3.8678   -4.5049 H         1 UNK         0.0814 
    109 H109       26.7332    2.3378   -3.6574 H         1 UNK         0.0814 
    110 H110       25.7958    1.6383   -7.7069 H         1 UNK         0.2983 
    111 H111       26.4807    4.0476   -9.3173 H         1 UNK         0.0947 
    112 H112       24.4748    3.3952  -10.6371 H         1 UNK         0.0806 
    113 H113       24.0686    3.6075   -8.9418 H         1 UNK         0.0806 
    114 H114       24.2280    1.9865   -9.6139 H         1 UNK         0.0806 
    115 H115       26.2698    0.4564   -9.5509 H         1 UNK         0.3000 
    116 H116       27.1787    0.3395  -12.2385 H         1 UNK         0.0850 
    117 H117       27.2030   -2.1212  -11.8316 H         1 UNK         0.0810 
    118 H118       25.7334   -1.3893  -11.2065 H         1 UNK         0.0810 
    119 H119       27.0254   -1.8531  -10.1027 H         1 UNK         0.0810 
    120 H120       28.9530   -0.1087   -9.1530 H         1 UNK         0.3040 
    121 H121       31.5088   -0.4962  -10.6843 H         1 UNK         0.0766 
    122 H122       32.2611   -1.7962   -8.7197 H         1 UNK         0.0812 
    123 H123       30.8025   -2.5113   -9.3897 H         1 UNK         0.0812 
    124 H124       30.7192   -1.5457   -7.9153 H         1 UNK         0.0812 
    125 H125       29.9883    0.9861   -7.8292 H         1 UNK         0.3205 
    126 H126       30.3803    2.7363   -6.5698 H         1 UNK         0.0754 
    127 H127       31.8815    4.5940   -7.1593 H         1 UNK         0.0769 
    128 H128       30.8997    4.1360   -8.5411 H         1 UNK         0.0769 
    129 H129       32.5975    3.6658   -8.4652 H         1 UNK         0.0769 
    130 H130       33.5008    1.4911   -7.6555 H         1 UNK         0.2981 
    131 H131       35.4292    1.0750   -6.5821 H         1 UNK         0.0541 
    132 H132       35.4430    1.0007   -2.6538 H         1 UNK         0.3459 
    133 H133       34.9345   -0.3643   -3.6197 H         1 UNK         0.3459 
    134 H134       35.3248   -1.1998   -5.6061 H         1 UNK         0.0612 
    135 H135       34.4407   -1.0153   -7.0881 H         1 UNK         0.0612 
    136 H136       33.1687   -3.2492   -6.8205 H         1 UNK         0.0624 
    137 H137       34.0651   -3.5489   -5.3480 H         1 UNK         0.0624 
@<TRIPOS>BOND
     1    1    2 1    
     2    1   72 1    
     3    1   73 1    
     4    1   74 1    
     5    2    3 2    
     6    2    4 am   BACKBONE|DICT|INTERRES
     7    4    5 1    
     8    4   75 1    
     9    5    6 1    
    10    5   35 1    
    11    5   76 1    
    12    6    7 1    
    13    6   77 1    
    14    6   78 1    
    15    7    8 1    
    16    8    9 1    
    17    8   79 1    
    18    8   80 1    
    19    9   10 ar   
    20    9   14 ar   
    21   10   11 ar   
    22   10   81 1    
    23   11   12 ar   
    24   11   71 1    
    25   12   13 ar   
    26   12   82 1    
    27   13   14 ar   
    28   13   15 1    
    29   14   83 1    
    30   15   16 1    
    31   15   84 1    
    32   15   85 1    
    33   16   17 1    
    34   17   18 1    
    35   17   86 1    
    36   17   87 1    
    37   18   19 1    
    38   18   37 1    
    39   18   88 1    
    40   19   20 am   BACKBONE|DICT|INTERRES
    41   19   89 1    
    42   20   21 2    
    43   20   22 1    
    44   22   23 1    
    45   22   24 1    
    46   22   90 1    
    47   23   91 1    
    48   23   92 1    
    49   23   93 1    
    50   24   25 am   BACKBONE|DICT|INTERRES
    51   24   94 1    
    52   25   26 2    
    53   25   27 1    
    54   27   28 1    
    55   27   29 1    
    56   27   95 1    
    57   28   96 1    
    58   28   97 1    
    59   28   98 1    
    60   29   30 am   BACKBONE|DICT|INTERRES
    61   29   99 1    
    62   30   31 2    
    63   30   32 1    
    64   32   33 1    
    65   32   34 1    
    66   32  100 1    
    67   33  101 1    
    68   33  102 1    
    69   33  103 1    
    70   34   35 am   BACKBONE|DICT|INTERRES
    71   34  104 1    
    72   35   36 2    
    73   37   38 2    
    74   37   39 am   BACKBONE|DICT|INTERRES
    75   39   40 1    
    76   39  105 1    
    77   40   41 1    
    78   40   42 1    
    79   40  106 1    
    80   41  107 1    
    81   41  108 1    
    82   41  109 1    
    83   42   43 2    
    84   42   44 am   BACKBONE|DICT|INTERRES
    85   44   45 1    
    86   44  110 1    
    87   45   46 1    
    88   45   47 1    
    89   45  111 1    
    90   46  112 1    
    91   46  113 1    
    92   46  114 1    
    93   47   48 2    
    94   47   49 am   BACKBONE|DICT|INTERRES
    95   49   50 1    
    96   49  115 1    
    97   50   51 1    
    98   50   52 1    
    99   50  116 1    
   100   51  117 1    
   101   51  118 1    
   102   51  119 1    
   103   52   53 2    
   104   52   54 am   BACKBONE|DICT|INTERRES
   105   54   55 1    
   106   54  120 1    
   107   55   56 1    
   108   55   57 1    
   109   55  121 1    
   110   56  122 1    
   111   56  123 1    
   112   56  124 1    
   113   57   58 2    
   114   57   59 am   BACKBONE|DICT|INTERRES
   115   59   60 1    
   116   59  125 1    
   117   60   61 1    
   118   60   62 1    
   119   60  126 1    
   120   61  127 1    
   121   61  128 1    
   122   61  129 1    
   123   62   63 2    
   124   62   64 am   BACKBONE|DICT|INTERRES
   125   64   65 1    
   126   64  130 1    
   127   65   66 1    
   128   65   69 1    
   129   65  131 1    
   130   66   67 am   BACKBONE|DICT|INTERRES
   131   66   68 2    
   132   67  132 1    
   133   67  133 1    
   134   69   70 1    
   135   69  134 1    
   136   69  135 1    
   137   70   71 1    
   138   71  136 1    
   139   71  137 1    
@<TRIPOS>SUBSTRUCTURE
     1 UNK         1 GROUP             0       ****    0 ROOT    
