@<TRIPOS>MOLECULE
3R137
137   139    1
SMALL
USER_CHARGES


@<TRIPOS>ATOM
      1 CA         25.0532    1.2779   -1.0076 C.3       0 UNK        -0.2020 
      2 C          25.7912    0.0642   -1.5497 C.2       0 UNK         0.4855 
      3 O          25.7075   -0.2160   -2.7466 O.2       0 UNK        -0.5197 
      4 N          26.5426   -0.6422   -0.6940 N.am      1 UNK        -0.4892 
      5 CA         27.1907   -1.9185   -1.0197 C.3       1 UNK         0.0835 
      6 C6         28.2450   -2.3015    0.0461 C.3       12 UNK        -0.0855 
      7 S7         29.3392   -3.6662   -0.4828 S.3       12 UNK        -0.2931 
      8 C8         30.9462   -2.8382   -0.7227 C.3       12 UNK         0.0378 
      9 C9         31.0480   -2.1361   -2.0708 C.ar      12 UNK        -0.0802 
     10 C10        31.1000   -2.8897   -3.2485 C.ar      12 UNK        -0.0944 
     11 C11        31.2432   -2.2611   -4.4887 C.ar      12 UNK        -0.0787 
     12 C12        31.3138   -0.8681   -4.5504 C.ar      12 UNK        -0.0862 
     13 C13        31.2682   -0.1013   -3.3825 C.ar      12 UNK        -0.0733 
     14 C14        31.1443   -0.7420   -2.1432 C.ar      12 UNK        -0.0832 
     15 C15        31.3836    1.4164   -3.4792 C.3       12 UNK         0.0240 
     16 S16        30.0537    2.3323   -2.6263 S.3       12 UNK        -0.2522 
     17 C17        28.5482    1.3843   -3.0225 C.3       12 UNK        -0.0967 
     18 CA         28.1447    1.4064   -4.5193 C.3       5 UNK         0.0660 
     19 N          27.5935    0.1225   -4.9703 N.am      5 UNK        -0.4015 
     20 C          27.5716   -0.2618   -6.2545 C.2       4 UNK         0.4946 
     21 O          28.0314    0.4173   -7.1703 O.2       4 UNK        -0.5353 
     22 CA         26.9194   -1.6105   -6.6027 C.3       4 UNK         0.0277 
     23 CB         27.9631   -2.7348   -6.5668 C.3       4 UNK        -0.1981 
     24 N          25.7935   -1.9949   -5.7554 N.am      4 UNK        -0.4209 
     25 C          24.6558   -1.3153   -5.5754 C.2       3 UNK         0.4942 
     26 O          24.4418   -0.2142   -6.0815 O.2       3 UNK        -0.5208 
     27 CA         23.5834   -1.9465   -4.6613 C.3       3 UNK         0.0250 
     28 CB         22.4171   -2.5164   -5.4912 C.3       3 UNK        -0.1990 
     29 N          24.0930   -2.9350   -3.6922 N.am      3 UNK        -0.4232 
     30 C          24.6465   -4.1383   -3.9158 C.2       2 UNK         0.4993 
     31 O          24.7527   -4.6424   -5.0339 O.2       2 UNK        -0.5286 
     32 CA         25.3112   -4.8178   -2.7039 C.3       2 UNK         0.0209 
     33 CB         25.9682   -6.1653   -3.0590 C.3       2 UNK        -0.1931 
     34 N          26.3347   -3.9179   -2.1654 N.am      2 UNK        -0.4546 
     35 C          26.1087   -3.0046   -1.2150 C.2       1 UNK         0.5154 
     36 O          25.0667   -2.9625   -0.5544 O.2       1 UNK        -0.5181 
     37 C          27.1724    2.5579   -4.8313 C.2       5 UNK         0.5014 
     38 O          27.6169    3.6255   -5.2524 O.2       5 UNK        -0.5248 
     39 N          25.8631    2.3088   -4.6679 N.am      6 UNK        -0.4434 
     40 CA         24.7923    3.2367   -5.0455 C.3       6 UNK         0.0363 
     41 CB         23.4522    2.7472   -4.4732 C.3       6 UNK        -0.1936 
     42 C          24.7056    3.4363   -6.5698 C.2       6 UNK         0.5081 
     43 O          24.4804    4.5579   -7.0242 O.2       6 UNK        -0.5248 
     44 N          24.9315    2.3555   -7.3295 N.am      7 UNK        -0.4718 
     45 CA         25.0577    2.3634   -8.7906 C.3       7 UNK         0.0273 
     46 CB         24.8969    0.9241   -9.3068 C.3       7 UNK        -0.1935 
     47 C          26.3857    2.9642   -9.2967 C.2       7 UNK         0.5018 
     48 O          26.4835    3.2666  -10.4866 O.2       7 UNK        -0.5186 
     49 N          27.3735    3.1095   -8.4001 N.am      8 UNK        -0.4240 
     50 CA         28.7472    3.5723   -8.6290 C.3       8 UNK         0.0235 
     51 CB         28.7658    5.0575   -9.0489 C.3       8 UNK        -0.2000 
     52 C          29.5372    2.6578   -9.5872 C.2       8 UNK         0.4941 
     53 O          30.2781    3.1499  -10.4413 O.2       8 UNK        -0.5273 
     54 N          29.3645    1.3396   -9.4305 N.am      9 UNK        -0.4262 
     55 CA         30.0661    0.3117  -10.1934 C.3       9 UNK         0.0264 
     56 CB         29.2073   -0.9622  -10.2333 C.3       9 UNK        -0.1955 
     57 C          31.4341    0.0273   -9.5576 C.2       9 UNK         0.5031 
     58 O          31.5133   -0.1994   -8.3473 O.2       9 UNK        -0.5390 
     59 N          32.4831    0.0173  -10.3870 N.am      10 UNK        -0.4204 
     60 CA         33.8558   -0.2882   -9.9884 C.3       10 UNK         0.0237 
     61 CB         34.8273    0.4573  -10.9231 C.3       10 UNK        -0.1985 
     62 C          34.0798   -1.8088  -10.0048 C.2       10 UNK         0.4970 
     63 O          34.5929   -2.3422  -10.9904 O.2       10 UNK        -0.4914 
     64 N          33.6636   -2.4811   -8.9255 N.am      11 UNK        -0.4285 
     65 CA         33.8367   -3.9301   -8.7245 C.3       11 UNK         0.1007 
     66 C          35.3014   -4.3997   -8.4705 C.2       11 UNK         0.5703 
     67 N          36.2499   -3.5116   -8.1953 N.am      11 UNK        -0.7361 
     68 O          35.5830   -5.5940   -8.5400 O.2       11 UNK        -0.4986 
     69 C69        32.8529   -4.4880   -7.6616 C.3       12 UNK        -0.0947 
     70 S70        33.0238   -3.7071   -6.0188 S.3       12 UNK        -0.2240 
     71 C71        31.3381   -3.0822   -5.7635 C.3       12 UNK         0.0194 
     72 H72        25.3582    2.1756   -1.5444 H         1 UNK         0.0906 
     73 H73        23.9795    1.1499   -1.1411 H         1 UNK         0.0906 
     74 H74        25.2480    1.4335    0.0532 H         1 UNK         0.0906 
     75 H75        26.5587   -0.3792    0.2812 H         1 UNK         0.3140 
     76 H76        27.7099   -1.7833   -1.9713 H         1 UNK         0.1085 
     77 H77        28.8620   -1.4325    0.2804 H         1 UNK         0.0836 
     78 H78        27.7623   -2.5835    0.9840 H         1 UNK         0.0836 
     79 H79        31.7332   -3.5915   -0.6644 H         1 UNK         0.0731 
     80 H80        31.1337   -2.1467    0.1003 H         1 UNK         0.0731 
     81 H81        31.0482   -3.9689   -3.1972 H         1 UNK         0.1312 
     82 H82        31.4210   -0.3833   -5.5123 H         1 UNK         0.1406 
     83 H83        31.1218   -0.1506   -1.2377 H         1 UNK         0.1631 
     84 H84        31.3988    1.7339   -4.5230 H         1 UNK         0.0717 
     85 H85        32.3420    1.7226   -3.0582 H         1 UNK         0.0717 
     86 H86        28.6919    0.3616   -2.6763 H         1 UNK         0.0934 
     87 H87        27.7573    1.7874   -2.3908 H         1 UNK         0.0934 
     88 H88        29.0447    1.5851   -5.1111 H         1 UNK         0.0739 
     89 H89        27.1049   -0.4317   -4.2768 H         1 UNK         0.3093 
     90 H90        26.5403   -1.5329   -7.6231 H         1 UNK         0.0818 
     91 H91        28.3587   -2.8815   -5.5611 H         1 UNK         0.0819 
     92 H92        27.5412   -3.6819   -6.9039 H         1 UNK         0.0819 
     93 H93        28.8025   -2.5068   -7.2224 H         1 UNK         0.0819 
     94 H94        25.8171   -2.9309   -5.3694 H         1 UNK         0.3041 
     95 H95        23.1891   -1.1264   -4.0589 H         1 UNK         0.0784 
     96 H96        21.9758   -1.7427   -6.1210 H         1 UNK         0.0793 
     97 H97        22.7399   -3.3225   -6.1506 H         1 UNK         0.0793 
     98 H98        21.6253   -2.9028   -4.8497 H         1 UNK         0.0793 
     99 H99        24.1194   -2.5999   -2.7371 H         1 UNK         0.3024 
    100 H100       24.5324   -5.0075   -1.9611 H         1 UNK         0.1171 
    101 H101       26.7515   -6.0513   -3.8096 H         1 UNK         0.0786 
    102 H102       26.4136   -6.6309   -2.1796 H         1 UNK         0.0786 
    103 H103       25.2324   -6.8650   -3.4578 H         1 UNK         0.0786 
    104 H104       27.2225   -3.9083   -2.6477 H         1 UNK         0.2977 
    105 H105       25.5807    1.3949   -4.3329 H         1 UNK         0.3127 
    106 H106       25.0173    4.2072   -4.5980 H         1 UNK         0.0770 
    107 H107       23.1709    1.7716   -4.8701 H         1 UNK         0.0814 
    108 H108       22.6484    3.4418   -4.7206 H         1 UNK         0.0814 
    109 H109       23.4886    2.6693   -3.3869 H         1 UNK         0.0814 
    110 H110       25.0066    1.4516   -6.8684 H         1 UNK         0.2983 
    111 H111       24.2475    2.9698   -9.2011 H         1 UNK         0.0947 
    112 H112       24.9085    0.8960  -10.3972 H         1 UNK         0.0806 
    113 H113       23.9536    0.4859   -8.9800 H         1 UNK         0.0806 
    114 H114       25.7048    0.2816   -8.9567 H         1 UNK         0.0806 
    115 H115       27.1792    2.8041   -7.4558 H         1 UNK         0.3000 
    116 H116       29.2512    3.4987   -7.6640 H         1 UNK         0.0850 
    117 H117       29.7868    5.4386   -9.0913 H         1 UNK         0.0810 
    118 H118       28.2191    5.6761   -8.3371 H         1 UNK         0.0810 
    119 H119       28.3226    5.2063  -10.0340 H         1 UNK         0.0810 
    120 H120       28.8086    1.0120   -8.6389 H         1 UNK         0.3040 
    121 H121       30.2050    0.6602  -11.2192 H         1 UNK         0.0766 
    122 H122       28.2409   -0.7736  -10.7010 H         1 UNK         0.0812 
    123 H123       29.0225   -1.3514   -9.2326 H         1 UNK         0.0812 
    124 H124       29.6996   -1.7496  -10.8054 H         1 UNK         0.0812 
    125 H125       32.3274    0.1783  -11.3721 H         1 UNK         0.3205 
    126 H126       34.0331    0.0725   -8.9725 H         1 UNK         0.0754 
    127 H127       35.8637    0.2395  -10.6615 H         1 UNK         0.0769 
    128 H128       34.6958    1.5370  -10.8489 H         1 UNK         0.0769 
    129 H129       34.6883    0.1751  -11.9677 H         1 UNK         0.0769 
    130 H130       33.2176   -1.9747   -8.1724 H         1 UNK         0.2981 
    131 H131       33.5577   -4.4028   -9.6683 H         1 UNK         0.0541 
    132 H132       37.1933   -3.8298   -8.0395 H         1 UNK         0.3459 
    133 H133       36.0287   -2.5320   -8.1255 H         1 UNK         0.3459 
    134 H134       31.8305   -4.3572   -8.0192 H         1 UNK         0.0612 
    135 H135       32.9803   -5.5657   -7.5441 H         1 UNK         0.0612 
    136 H136       30.6438   -3.9225   -5.7219 H         1 UNK         0.0624 
    137 H137       31.0534   -2.4747   -6.6237 H         1 UNK         0.0624 
@<TRIPOS>BOND
     1    1    2 1    
     2    1   72 1    
     3    1   73 1    
     4    1   74 1    
     5    2    3 2    
     6    2    4 am   BACKBONE|DICT|INTERRES
     7    4    5 1    
     8    4   75 1    
     9    5    6 1    
    10    5   35 1    
    11    5   76 1    
    12    6    7 1    
    13    6   77 1    
    14    6   78 1    
    15    7    8 1    
    16    8    9 1    
    17    8   79 1    
    18    8   80 1    
    19    9   10 ar   
    20    9   14 ar   
    21   10   11 ar   
    22   10   81 1    
    23   11   12 ar   
    24   11   71 1    
    25   12   13 ar   
    26   12   82 1    
    27   13   14 ar   
    28   13   15 1    
    29   14   83 1    
    30   15   16 1    
    31   15   84 1    
    32   15   85 1    
    33   16   17 1    
    34   17   18 1    
    35   17   86 1    
    36   17   87 1    
    37   18   19 1    
    38   18   37 1    
    39   18   88 1    
    40   19   20 am   BACKBONE|DICT|INTERRES
    41   19   89 1    
    42   20   21 2    
    43   20   22 1    
    44   22   23 1    
    45   22   24 1    
    46   22   90 1    
    47   23   91 1    
    48   23   92 1    
    49   23   93 1    
    50   24   25 am   BACKBONE|DICT|INTERRES
    51   24   94 1    
    52   25   26 2    
    53   25   27 1    
    54   27   28 1    
    55   27   29 1    
    56   27   95 1    
    57   28   96 1    
    58   28   97 1    
    59   28   98 1    
    60   29   30 am   BACKBONE|DICT|INTERRES
    61   29   99 1    
    62   30   31 2    
    63   30   32 1    
    64   32   33 1    
    65   32   34 1    
    66   32  100 1    
    67   33  101 1    
    68   33  102 1    
    69   33  103 1    
    70   34   35 am   BACKBONE|DICT|INTERRES
    71   34  104 1    
    72   35   36 2    
    73   37   38 2    
    74   37   39 am   BACKBONE|DICT|INTERRES
    75   39   40 1    
    76   39  105 1    
    77   40   41 1    
    78   40   42 1    
    79   40  106 1    
    80   41  107 1    
    81   41  108 1    
    82   41  109 1    
    83   42   43 2    
    84   42   44 am   BACKBONE|DICT|INTERRES
    85   44   45 1    
    86   44  110 1    
    87   45   46 1    
    88   45   47 1    
    89   45  111 1    
    90   46  112 1    
    91   46  113 1    
    92   46  114 1    
    93   47   48 2    
    94   47   49 am   BACKBONE|DICT|INTERRES
    95   49   50 1    
    96   49  115 1    
    97   50   51 1    
    98   50   52 1    
    99   50  116 1    
   100   51  117 1    
   101   51  118 1    
   102   51  119 1    
   103   52   53 2    
   104   52   54 am   BACKBONE|DICT|INTERRES
   105   54   55 1    
   106   54  120 1    
   107   55   56 1    
   108   55   57 1    
   109   55  121 1    
   110   56  122 1    
   111   56  123 1    
   112   56  124 1    
   113   57   58 2    
   114   57   59 am   BACKBONE|DICT|INTERRES
   115   59   60 1    
   116   59  125 1    
   117   60   61 1    
   118   60   62 1    
   119   60  126 1    
   120   61  127 1    
   121   61  128 1    
   122   61  129 1    
   123   62   63 2    
   124   62   64 am   BACKBONE|DICT|INTERRES
   125   64   65 1    
   126   64  130 1    
   127   65   66 1    
   128   65   69 1    
   129   65  131 1    
   130   66   67 am   BACKBONE|DICT|INTERRES
   131   66   68 2    
   132   67  132 1    
   133   67  133 1    
   134   69   70 1    
   135   69  134 1    
   136   69  135 1    
   137   70   71 1    
   138   71  136 1    
   139   71  137 1    
@<TRIPOS>SUBSTRUCTURE
     1 UNK         1 GROUP             0       ****    0 ROOT    
