@<TRIPOS>MOLECULE
3R137
137   139    1
SMALL
USER_CHARGES


@<TRIPOS>ATOM
      1 CA         22.8439   -5.2605   -1.7376 C.3       0 UNK        -0.2020 
      2 C          24.1249   -4.9372   -0.9829 C.2       0 UNK         0.4855 
      3 O          24.2010   -5.1652    0.2246 O.2       0 UNK        -0.5197 
      4 N          25.1292   -4.4049   -1.6839 N.am      1 UNK        -0.4892 
      5 CA         26.4173   -3.9757   -1.1460 C.3       1 UNK         0.0835 
      6 C6         27.4018   -5.1661   -0.9972 C.3       12 UNK        -0.0855 
      7 S7         28.8807   -4.7779    0.0083 S.3       12 UNK        -0.2931 
      8 C8         30.2384   -5.4939   -0.9789 C.3       12 UNK         0.0378 
      9 C9         30.4973   -4.7188   -2.2641 C.ar      12 UNK        -0.0802 
     10 C10        31.3030   -3.5740   -2.2539 C.ar      12 UNK        -0.0944 
     11 C11        31.5249   -2.8534   -3.4330 C.ar      12 UNK        -0.0787 
     12 C12        30.9451   -3.2928   -4.6248 C.ar      12 UNK        -0.0862 
     13 C13        30.1360   -4.4306   -4.6464 C.ar      12 UNK        -0.0733 
     14 C14        29.9303   -5.1492   -3.4675 C.ar      12 UNK        -0.0832 
     15 C15        29.4556   -4.8662   -5.9342 C.3       12 UNK         0.0240 
     16 S16        27.8067   -4.1092   -6.0888 S.3       12 UNK        -0.2522 
     17 C17        28.2613   -2.3738   -6.4114 C.3       12 UNK        -0.0967 
     18 CA         27.0713   -1.5352   -6.9193 C.3       5 UNK         0.0660 
     19 N          26.0172   -1.4168   -5.9054 N.am      5 UNK        -0.4015 
     20 C          24.7936   -0.9143   -6.1258 C.2       4 UNK         0.4946 
     21 O          24.4204   -0.4623   -7.2089 O.2       4 UNK        -0.5353 
     22 CA         23.8379   -0.8858   -4.9250 C.3       4 UNK         0.0277 
     23 CB         23.2865   -2.2896   -4.6220 C.3       4 UNK        -0.1981 
     24 N          24.5095   -0.3441   -3.7434 N.am      4 UNK        -0.4209 
     25 C          24.6553    0.9671   -3.5018 C.2       3 UNK         0.4942 
     26 O          24.1529    1.8511   -4.1962 O.2       3 UNK        -0.5208 
     27 CA         25.5134    1.3727   -2.2889 C.3       3 UNK         0.0250 
     28 CB         24.6259    1.5938   -1.0534 C.3       3 UNK        -0.1990 
     29 N          26.5714    0.4137   -1.9586 N.am      3 UNK        -0.4232 
     30 C          27.6021    0.1053   -2.7585 C.2       2 UNK         0.4993 
     31 O          27.7761    0.5923   -3.8724 O.2       2 UNK        -0.5286 
     32 CA         28.5714   -0.9734   -2.2558 C.3       2 UNK         0.0209 
     33 CB         29.6337   -0.3478   -1.3377 C.3       2 UNK        -0.1931 
     34 N          27.9147   -2.0830   -1.5591 N.am      2 UNK        -0.4546 
     35 C          26.9361   -2.8488   -2.0591 C.2       1 UNK         0.5154 
     36 O          26.4206   -2.6648   -3.1692 O.2       1 UNK        -0.5181 
     37 C          27.5547   -0.1742   -7.4662 C.2       5 UNK         0.5014 
     38 O          27.9615   -0.1116   -8.6273 O.2       5 UNK        -0.5248 
     39 N          27.4639    0.8944   -6.6583 N.am      6 UNK        -0.4434 
     40 CA         27.7749    2.2848   -7.0144 C.3       6 UNK         0.0363 
     41 CB         27.5126    3.1959   -5.8045 C.3       6 UNK        -0.1936 
     42 C          27.0327    2.8258   -8.2509 C.2       6 UNK         0.5081 
     43 O          27.5330    3.7569   -8.8817 O.2       6 UNK        -0.5248 
     44 N          25.9007    2.2107   -8.6263 N.am      7 UNK        -0.4718 
     45 CA         25.1928    2.4605   -9.8875 C.3       7 UNK         0.0273 
     46 CB         23.8847    1.6546   -9.8977 C.3       7 UNK        -0.1935 
     47 C          26.0307    2.1431  -11.1448 C.2       7 UNK         0.5018 
     48 O          25.7680    2.7221  -12.1993 O.2       7 UNK        -0.5186 
     49 N          27.0308    1.2613  -11.0068 N.am      8 UNK        -0.4240 
     50 CA         28.0306    0.9319  -12.0233 C.3       8 UNK         0.0235 
     51 CB         27.9881   -0.5867  -12.2758 C.3       8 UNK        -0.2000 
     52 C          29.4361    1.3960  -11.5901 C.2       8 UNK         0.4941 
     53 O          30.4274    0.8532  -12.0829 O.2       8 UNK        -0.5273 
     54 N          29.5125    2.3640  -10.6613 N.am      9 UNK        -0.4262 
     55 CA         30.7007    2.9227   -9.9976 C.3       9 UNK         0.0264 
     56 CB         31.6718    3.5770  -11.0000 C.3       9 UNK        -0.1955 
     57 C          31.4254    1.9271   -9.0744 C.2       9 UNK         0.5031 
     58 O          31.6370    2.2443   -7.9025 O.2       9 UNK        -0.5390 
     59 N          31.7726    0.7498   -9.6118 N.am      10 UNK        -0.4204 
     60 CA         32.3987   -0.4007   -8.9546 C.3       10 UNK         0.0237 
     61 CB         31.3509   -1.1535   -8.1107 C.3       10 UNK        -0.1985 
     62 C          33.6750   -0.0224   -8.1793 C.2       10 UNK         0.4970 
     63 O          34.7043    0.2213   -8.8110 O.2       10 UNK        -0.4914 
     64 N          33.5874    0.0212   -6.8433 N.am      11 UNK        -0.4285 
     65 CA         34.6773    0.4208   -5.9393 C.3       11 UNK         0.1007 
     66 C          35.0568    1.9298   -6.0169 C.2       11 UNK         0.5703 
     67 N          34.2343    2.7986   -6.5953 N.am      11 UNK        -0.7361 
     68 O          36.1228    2.3171   -5.5439 O.2       11 UNK        -0.4986 
     69 C69        34.4074    0.0060   -4.4658 C.3       12 UNK        -0.0947 
     70 S70        33.9334   -1.7476   -4.2652 S.3       12 UNK        -0.2240 
     71 C71        32.3300   -1.5628   -3.4250 C.3       12 UNK         0.0194 
     72 H72        22.0143   -4.6804   -1.3344 H         1 UNK         0.0906 
     73 H73        22.6034   -6.3181   -1.6326 H         1 UNK         0.0906 
     74 H74        22.9288   -5.0370   -2.8010 H         1 UNK         0.0906 
     75 H75        25.0206   -4.1827   -2.6665 H         1 UNK         0.3140 
     76 H76        26.2415   -3.5356   -0.1615 H         1 UNK         0.1085 
     77 H77        26.8986   -5.9944   -0.4960 H         1 UNK         0.0836 
     78 H78        27.6805   -5.5512   -1.9765 H         1 UNK         0.0836 
     79 H79        30.0150   -6.5394   -1.1979 H         1 UNK         0.0731 
     80 H80        31.1453   -5.5010   -0.3723 H         1 UNK         0.0731 
     81 H81        31.7382   -3.2347   -1.3239 H         1 UNK         0.1312 
     82 H82        31.1048   -2.7302   -5.5324 H         1 UNK         0.1406 
     83 H83        29.3102   -6.0347   -3.4882 H         1 UNK         0.1631 
     84 H84        29.3485   -5.9518   -5.9503 H         1 UNK         0.0717 
     85 H85        30.0672   -4.6077   -6.8001 H         1 UNK         0.0717 
     86 H86        28.6736   -1.9333   -5.5026 H         1 UNK         0.0934 
     87 H87        29.0611   -2.3823   -7.1511 H         1 UNK         0.0934 
     88 H88        26.6321   -2.0612   -7.7699 H         1 UNK         0.0739 
     89 H89        26.2329   -1.7989   -4.9896 H         1 UNK         0.3093 
     90 H90        22.9922   -0.2435   -5.1815 H         1 UNK         0.0818 
     91 H91        22.7264   -2.6759   -5.4745 H         1 UNK         0.0819 
     92 H92        24.0794   -3.0056   -4.4069 H         1 UNK         0.0819 
     93 H93        22.6072   -2.2737   -3.7695 H         1 UNK         0.0819 
     94 H94        25.0008   -1.0053   -3.1555 H         1 UNK         0.3041 
     95 H95        25.9960    2.3204   -2.5379 H         1 UNK         0.0784 
     96 H96        23.8433    2.3250   -1.2612 H         1 UNK         0.0793 
     97 H97        24.1351    0.6722   -0.7377 H         1 UNK         0.0793 
     98 H98        25.2045    1.9734   -0.2110 H         1 UNK         0.0793 
     99 H99        26.5098   -0.0458   -1.0617 H         1 UNK         0.3024 
    100 H100       29.0703   -1.3936   -3.1305 H         1 UNK         0.1171 
    101 H101       30.3621   -1.0872   -1.0070 H         1 UNK         0.0786 
    102 H102       30.1834    0.4382   -1.8577 H         1 UNK         0.0786 
    103 H103       29.1879    0.0992   -0.4483 H         1 UNK         0.0786 
    104 H104       28.2978   -2.3382   -0.6588 H         1 UNK         0.2977 
    105 H105       27.2379    0.7333   -5.6792 H         1 UNK         0.3127 
    106 H106       28.8413    2.3231   -7.2442 H         1 UNK         0.0770 
    107 H107       26.4831    3.1128   -5.4538 H         1 UNK         0.0814 
    108 H108       27.6913    4.2431   -6.0530 H         1 UNK         0.0814 
    109 H109       28.1731    2.9509   -4.9731 H         1 UNK         0.0814 
    110 H110       25.5563    1.4461   -8.0578 H         1 UNK         0.2983 
    111 H111       24.9446    3.5234   -9.9234 H         1 UNK         0.0947 
    112 H112       24.0733    0.5811   -9.8513 H         1 UNK         0.0806 
    113 H113       23.3130    1.8473  -10.8066 H         1 UNK         0.0806 
    114 H114       23.2484    1.9184   -9.0527 H         1 UNK         0.0806 
    115 H115       27.1871    0.8345  -10.0953 H         1 UNK         0.3000 
    116 H116       27.8062    1.4425  -12.9619 H         1 UNK         0.0850 
    117 H117       28.6748   -0.8746  -13.0729 H         1 UNK         0.0810 
    118 H118       26.9918   -0.9100  -12.5775 H         1 UNK         0.0810 
    119 H119       28.2670   -1.1484  -11.3830 H         1 UNK         0.0810 
    120 H120       28.6373    2.7363  -10.3076 H         1 UNK         0.3040 
    121 H121       30.3217    3.7184   -9.3540 H         1 UNK         0.0766 
    122 H122       32.1129    2.8515  -11.6837 H         1 UNK         0.0812 
    123 H123       32.4940    4.0672  -10.4771 H         1 UNK         0.0812 
    124 H124       31.1692    4.3373  -11.5977 H         1 UNK         0.0812 
    125 H125       31.5249    0.6224  -10.5917 H         1 UNK         0.3205 
    126 H126       32.7176   -1.0727   -9.7529 H         1 UNK         0.0754 
    127 H127       31.7871   -2.0364   -7.6427 H         1 UNK         0.0769 
    128 H128       30.5337   -1.4977   -8.7448 H         1 UNK         0.0769 
    129 H129       30.9169   -0.5279   -7.3296 H         1 UNK         0.0769 
    130 H130       32.6958   -0.1614   -6.4108 H         1 UNK         0.2981 
    131 H131       35.5648   -0.1248   -6.2655 H         1 UNK         0.0541 
    132 H132       33.3474    2.4976   -6.9891 H         1 UNK         0.3459 
    133 H133       34.4966    3.7700   -6.6375 H         1 UNK         0.3459 
    134 H134       33.6340    0.6434   -4.0334 H         1 UNK         0.0612 
    135 H135       35.3008    0.1716   -3.8609 H         1 UNK         0.0612 
    136 H136       31.7449   -0.7855   -3.9190 H         1 UNK         0.0624 
    137 H137       32.5037   -1.2189   -2.4043 H         1 UNK         0.0624 
@<TRIPOS>BOND
     1    1    2 1    
     2    1   72 1    
     3    1   73 1    
     4    1   74 1    
     5    2    3 2    
     6    2    4 am   BACKBONE|DICT|INTERRES
     7    4    5 1    
     8    4   75 1    
     9    5    6 1    
    10    5   35 1    
    11    5   76 1    
    12    6    7 1    
    13    6   77 1    
    14    6   78 1    
    15    7    8 1    
    16    8    9 1    
    17    8   79 1    
    18    8   80 1    
    19    9   10 ar   
    20    9   14 ar   
    21   10   11 ar   
    22   10   81 1    
    23   11   12 ar   
    24   11   71 1    
    25   12   13 ar   
    26   12   82 1    
    27   13   14 ar   
    28   13   15 1    
    29   14   83 1    
    30   15   16 1    
    31   15   84 1    
    32   15   85 1    
    33   16   17 1    
    34   17   18 1    
    35   17   86 1    
    36   17   87 1    
    37   18   19 1    
    38   18   37 1    
    39   18   88 1    
    40   19   20 am   BACKBONE|DICT|INTERRES
    41   19   89 1    
    42   20   21 2    
    43   20   22 1    
    44   22   23 1    
    45   22   24 1    
    46   22   90 1    
    47   23   91 1    
    48   23   92 1    
    49   23   93 1    
    50   24   25 am   BACKBONE|DICT|INTERRES
    51   24   94 1    
    52   25   26 2    
    53   25   27 1    
    54   27   28 1    
    55   27   29 1    
    56   27   95 1    
    57   28   96 1    
    58   28   97 1    
    59   28   98 1    
    60   29   30 am   BACKBONE|DICT|INTERRES
    61   29   99 1    
    62   30   31 2    
    63   30   32 1    
    64   32   33 1    
    65   32   34 1    
    66   32  100 1    
    67   33  101 1    
    68   33  102 1    
    69   33  103 1    
    70   34   35 am   BACKBONE|DICT|INTERRES
    71   34  104 1    
    72   35   36 2    
    73   37   38 2    
    74   37   39 am   BACKBONE|DICT|INTERRES
    75   39   40 1    
    76   39  105 1    
    77   40   41 1    
    78   40   42 1    
    79   40  106 1    
    80   41  107 1    
    81   41  108 1    
    82   41  109 1    
    83   42   43 2    
    84   42   44 am   BACKBONE|DICT|INTERRES
    85   44   45 1    
    86   44  110 1    
    87   45   46 1    
    88   45   47 1    
    89   45  111 1    
    90   46  112 1    
    91   46  113 1    
    92   46  114 1    
    93   47   48 2    
    94   47   49 am   BACKBONE|DICT|INTERRES
    95   49   50 1    
    96   49  115 1    
    97   50   51 1    
    98   50   52 1    
    99   50  116 1    
   100   51  117 1    
   101   51  118 1    
   102   51  119 1    
   103   52   53 2    
   104   52   54 am   BACKBONE|DICT|INTERRES
   105   54   55 1    
   106   54  120 1    
   107   55   56 1    
   108   55   57 1    
   109   55  121 1    
   110   56  122 1    
   111   56  123 1    
   112   56  124 1    
   113   57   58 2    
   114   57   59 am   BACKBONE|DICT|INTERRES
   115   59   60 1    
   116   59  125 1    
   117   60   61 1    
   118   60   62 1    
   119   60  126 1    
   120   61  127 1    
   121   61  128 1    
   122   61  129 1    
   123   62   63 2    
   124   62   64 am   BACKBONE|DICT|INTERRES
   125   64   65 1    
   126   64  130 1    
   127   65   66 1    
   128   65   69 1    
   129   65  131 1    
   130   66   67 am   BACKBONE|DICT|INTERRES
   131   66   68 2    
   132   67  132 1    
   133   67  133 1    
   134   69   70 1    
   135   69  134 1    
   136   69  135 1    
   137   70   71 1    
   138   71  136 1    
   139   71  137 1    
@<TRIPOS>SUBSTRUCTURE
     1 UNK         1 GROUP             0       ****    0 ROOT    
