@<TRIPOS>MOLECULE
3R137
137   139    1
SMALL
USER_CHARGES


@<TRIPOS>ATOM
      1 CA         25.5585   -6.6200   -3.4205 C.3       0 UNK        -0.2020 
      2 C          25.8326   -6.1575   -1.9971 C.2       0 UNK         0.4855 
      3 O          25.5110   -6.8738   -1.0483 O.2       0 UNK        -0.5197 
      4 N          26.4177   -4.9657   -1.8432 N.am      1 UNK        -0.4892 
      5 CA         26.7485   -4.3555   -0.5520 C.3       1 UNK         0.0835 
      6 C6         28.0013   -4.9398    0.1715 C.3       12 UNK        -0.0855 
      7 S7         29.2892   -5.7041   -0.8825 S.3       12 UNK        -0.2931 
      8 C8         30.5965   -4.4332   -0.9856 C.3       12 UNK         0.0378 
      9 C9         30.5784   -3.6120   -2.2748 C.ar      12 UNK        -0.0802 
     10 C10        31.0750   -2.3039   -2.2538 C.ar      12 UNK        -0.0944 
     11 C11        31.1121   -1.5292   -3.4178 C.ar      12 UNK        -0.0787 
     12 C12        30.6287   -2.0749   -4.6115 C.ar      12 UNK        -0.0862 
     13 C13        30.1524   -3.3873   -4.6589 C.ar      12 UNK        -0.0733 
     14 C14        30.1366   -4.1526   -3.4906 C.ar      12 UNK        -0.0832 
     15 C15        29.7033   -3.9857   -5.9878 C.3       12 UNK         0.0240 
     16 S16        27.9536   -4.5036   -6.0234 S.3       12 UNK        -0.2522 
     17 C17        27.0525   -3.0390   -5.4218 C.3       12 UNK        -0.0967 
     18 CA         26.6944   -2.0008   -6.5182 C.3       5 UNK         0.0660 
     19 N          25.4251   -1.3314   -6.2209 N.am      5 UNK        -0.4015 
     20 C          24.7668   -0.5174   -7.0599 C.2       4 UNK         0.4946 
     21 O          25.1253   -0.2905   -8.2150 O.2       4 UNK        -0.5353 
     22 CA         23.5356    0.2179   -6.4978 C.3       4 UNK         0.0277 
     23 CB         22.2642   -0.6180   -6.7114 C.3       4 UNK        -0.1981 
     24 N          23.6659    0.5631   -5.0775 N.am      4 UNK        -0.4209 
     25 C          24.6176    1.3633   -4.5764 C.2       3 UNK         0.4942 
     26 O          25.4459    1.9447   -5.2778 O.2       3 UNK        -0.5208 
     27 CA         24.7155    1.4935   -3.0431 C.3       3 UNK         0.0250 
     28 CB         23.4606    0.9983   -2.2877 C.3       3 UNK        -0.1990 
     29 N          25.9242    0.8370   -2.5196 N.am      3 UNK        -0.4232 
     30 C          26.2704   -0.4506   -2.6773 C.2       2 UNK         0.4993 
     31 O          25.5944   -1.2591   -3.3185 O.2       2 UNK        -0.5286 
     32 CA         27.6188   -0.9172   -2.0842 C.3       2 UNK         0.0209 
     33 CB         28.1734   -0.0081   -0.9633 C.3       2 UNK        -0.1931 
     34 N          27.5667   -2.3215   -1.6514 N.am      2 UNK        -0.4546 
     35 C          26.7739   -2.8276   -0.6942 C.2       1 UNK         0.5154 
     36 O          26.0457   -2.1476    0.0307 O.2       1 UNK        -0.5181 
     37 C          27.8293   -0.9736   -6.6998 C.2       5 UNK         0.5014 
     38 O          28.6447   -1.1196   -7.6098 O.2       5 UNK        -0.5248 
     39 N          27.8461    0.0628   -5.8459 N.am      6 UNK        -0.4434 
     40 CA         28.8295    1.1462   -5.8751 C.3       6 UNK         0.0363 
     41 CB         28.7135    2.0119   -4.6097 C.3       6 UNK        -0.1936 
     42 C          28.7154    2.0004   -7.1412 C.2       6 UNK         0.5081 
     43 O          29.7442    2.3586   -7.7157 O.2       6 UNK        -0.5248 
     44 N          27.4746    2.2698   -7.5663 N.am      7 UNK        -0.4718 
     45 CA         27.1610    2.9325   -8.8304 C.3       7 UNK         0.0273 
     46 CB         25.6698    3.3050   -8.8598 C.3       7 UNK        -0.1935 
     47 C          27.5415    2.0747  -10.0491 C.2       7 UNK         0.5018 
     48 O          28.1764    2.5900  -10.9694 O.2       7 UNK        -0.5186 
     49 N          27.1632    0.7873  -10.0286 N.am      8 UNK        -0.4240 
     50 CA         27.4113   -0.1708  -11.1097 C.3       8 UNK         0.0235 
     51 CB         26.6361   -1.4711  -10.8417 C.3       8 UNK        -0.2000 
     52 C          28.9009   -0.4710  -11.3404 C.2       8 UNK         0.4941 
     53 O          29.3462   -0.4578  -12.4887 O.2       8 UNK        -0.5273 
     54 N          29.6432   -0.7384  -10.2573 N.am      9 UNK        -0.4262 
     55 CA         31.0669   -1.0858  -10.3077 C.3       9 UNK         0.0264 
     56 CB         31.4193   -1.9251   -9.0674 C.3       9 UNK        -0.1955 
     57 C          32.0016    0.1328  -10.4065 C.2       9 UNK         0.5031 
     58 O          33.1986   -0.0615  -10.6226 O.2       9 UNK        -0.5390 
     59 N          31.4661    1.3469  -10.1983 N.am      10 UNK        -0.4204 
     60 CA         32.1902    2.6170  -10.0266 C.3       10 UNK         0.0237 
     61 CB         32.9391    3.0225  -11.3142 C.3       10 UNK        -0.1985 
     62 C          33.0916    2.6232   -8.7714 C.2       10 UNK         0.4970 
     63 O          34.1040    3.3243   -8.7334 O.2       10 UNK        -0.4914 
     64 N          32.6875    1.8397   -7.7656 N.am      11 UNK        -0.4285 
     65 CA         33.2871    1.7485   -6.4294 C.3       11 UNK         0.1007 
     66 C          32.8660    2.9399   -5.5160 C.2       11 UNK         0.5703 
     67 N          31.7572    3.6200   -5.7901 N.am      11 UNK        -0.7361 
     68 O          33.5768    3.2830   -4.5749 O.2       11 UNK        -0.4986 
     69 C69        32.9935    0.3335   -5.8458 C.3       12 UNK        -0.0947 
     70 S70        33.3409    0.0316   -4.0745 S.3       12 UNK        -0.2240 
     71 C71        31.6632   -0.1061   -3.3692 C.3       12 UNK         0.0194 
     72 H72        24.4942   -6.8105   -3.5557 H         1 UNK         0.0906 
     73 H73        25.8663   -5.8801   -4.1584 H         1 UNK         0.0906 
     74 H74        26.0990   -7.5440   -3.6238 H         1 UNK         0.0906 
     75 H75        26.6107   -4.3965   -2.6543 H         1 UNK         0.3140 
     76 H76        25.8964   -4.5470    0.1057 H         1 UNK         0.1085 
     77 H77        28.4545   -4.2089    0.8440 H         1 UNK         0.0836 
     78 H78        27.6604   -5.7385    0.8321 H         1 UNK         0.0836 
     79 H79        30.5407   -3.7792   -0.1143 H         1 UNK         0.0731 
     80 H80        31.5621   -4.9366   -0.9252 H         1 UNK         0.0731 
     81 H81        31.4443   -1.8883   -1.3259 H         1 UNK         0.1312 
     82 H82        30.6377   -1.4939   -5.5193 H         1 UNK         0.1406 
     83 H83        29.7863   -5.1746   -3.5402 H         1 UNK         0.1631 
     84 H84        30.3244   -4.8551   -6.2066 H         1 UNK         0.0717 
     85 H85        29.8760   -3.2867   -6.8052 H         1 UNK         0.0717 
     86 H86        27.5862   -2.5871   -4.5866 H         1 UNK         0.0934 
     87 H87        26.1339   -3.4330   -4.9841 H         1 UNK         0.0934 
     88 H88        26.5615   -2.5219   -7.4686 H         1 UNK         0.0739 
     89 H89        25.0985   -1.4107   -5.2624 H         1 UNK         0.3093 
     90 H90        23.4304    1.1506   -7.0561 H         1 UNK         0.0818 
     91 H91        21.3731   -0.0722   -6.4006 H         1 UNK         0.0819 
     92 H92        22.1363   -0.8692   -7.7654 H         1 UNK         0.0819 
     93 H93        22.2965   -1.5554   -6.1546 H         1 UNK         0.0819 
     94 H94        23.0389    0.1037   -4.4327 H         1 UNK         0.3041 
     95 H95        24.8242    2.5597   -2.8383 H         1 UNK         0.0784 
     96 H96        22.5601    1.5008   -2.6438 H         1 UNK         0.0793 
     97 H97        23.3076   -0.0766   -2.3903 H         1 UNK         0.0793 
     98 H98        23.5418    1.2125   -1.2219 H         1 UNK         0.0793 
     99 H99        26.5489    1.4353   -1.9976 H         1 UNK         0.3024 
    100 H100       28.3309   -0.8871   -2.9091 H         1 UNK         0.1171 
    101 H101       29.0968   -0.4165   -0.5523 H         1 UNK         0.0786 
    102 H102       27.4680    0.1040   -0.1391 H         1 UNK         0.0786 
    103 H103       28.4107    0.9897   -1.3324 H         1 UNK         0.0786 
    104 H104       28.1685   -2.9578   -2.1560 H         1 UNK         0.2977 
    105 H105       27.0706    0.1740   -5.2095 H         1 UNK         0.3127 
    106 H106       29.8163    0.6893   -5.8866 H         1 UNK         0.0770 
    107 H107       27.7826    2.5758   -4.5767 H         1 UNK         0.0814 
    108 H108       29.5213    2.7407   -4.5609 H         1 UNK         0.0814 
    109 H109       28.7739    1.4117   -3.7048 H         1 UNK         0.0814 
    110 H110       26.6943    1.9774   -6.9877 H         1 UNK         0.2983 
    111 H111       27.7443    3.8549   -8.8791 H         1 UNK         0.0947 
    112 H112       25.4169    3.8276   -9.7833 H         1 UNK         0.0806 
    113 H113       25.4107    3.9653   -8.0319 H         1 UNK         0.0806 
    114 H114       25.0293    2.4248   -8.7969 H         1 UNK         0.0806 
    115 H115       26.6033    0.4534   -9.2481 H         1 UNK         0.3000 
    116 H116       27.0210    0.2684  -12.0303 H         1 UNK         0.0850 
    117 H117       26.8005   -2.1974  -11.6388 H         1 UNK         0.0810 
    118 H118       25.5629   -1.2879  -10.7875 H         1 UNK         0.0810 
    119 H119       26.9425   -1.9378   -9.9049 H         1 UNK         0.0810 
    120 H120       29.1981   -0.7687   -9.3403 H         1 UNK         0.3040 
    121 H121       31.2477   -1.7027  -11.1906 H         1 UNK         0.0766 
    122 H122       32.4600   -2.2506   -9.0950 H         1 UNK         0.0812 
    123 H123       31.2795   -1.3617   -8.1445 H         1 UNK         0.0812 
    124 H124       30.8027   -2.8220   -9.0115 H         1 UNK         0.0812 
    125 H125       30.4692    1.3940  -10.0306 H         1 UNK         0.3205 
    126 H126       31.4234    3.3716   -9.8443 H         1 UNK         0.0754 
    127 H127       33.3356    4.0352  -11.2320 H         1 UNK         0.0769 
    128 H128       32.2767    3.0043  -12.1796 H         1 UNK         0.0769 
    129 H129       33.7814    2.3619  -11.5213 H         1 UNK         0.0769 
    130 H130       31.7935    1.3839   -7.8788 H         1 UNK         0.2981 
    131 H131       34.3697    1.8296   -6.5428 H         1 UNK         0.0541 
    132 H132       31.1666    3.3511   -6.5670 H         1 UNK         0.3459 
    133 H133       31.5104    4.4087   -5.2145 H         1 UNK         0.3459 
    134 H134       31.9527    0.0912   -6.0333 H         1 UNK         0.0612 
    135 H135       33.5600   -0.4064   -6.4132 H         1 UNK         0.0612 
    136 H136       31.7025    0.2413   -2.3358 H         1 UNK         0.0624 
    137 H137       30.9938    0.5796   -3.8825 H         1 UNK         0.0624 
@<TRIPOS>BOND
     1    1    2 1    
     2    1   72 1    
     3    1   73 1    
     4    1   74 1    
     5    2    3 2    
     6    2    4 am   BACKBONE|DICT|INTERRES
     7    4    5 1    
     8    4   75 1    
     9    5    6 1    
    10    5   35 1    
    11    5   76 1    
    12    6    7 1    
    13    6   77 1    
    14    6   78 1    
    15    7    8 1    
    16    8    9 1    
    17    8   79 1    
    18    8   80 1    
    19    9   10 ar   
    20    9   14 ar   
    21   10   11 ar   
    22   10   81 1    
    23   11   12 ar   
    24   11   71 1    
    25   12   13 ar   
    26   12   82 1    
    27   13   14 ar   
    28   13   15 1    
    29   14   83 1    
    30   15   16 1    
    31   15   84 1    
    32   15   85 1    
    33   16   17 1    
    34   17   18 1    
    35   17   86 1    
    36   17   87 1    
    37   18   19 1    
    38   18   37 1    
    39   18   88 1    
    40   19   20 am   BACKBONE|DICT|INTERRES
    41   19   89 1    
    42   20   21 2    
    43   20   22 1    
    44   22   23 1    
    45   22   24 1    
    46   22   90 1    
    47   23   91 1    
    48   23   92 1    
    49   23   93 1    
    50   24   25 am   BACKBONE|DICT|INTERRES
    51   24   94 1    
    52   25   26 2    
    53   25   27 1    
    54   27   28 1    
    55   27   29 1    
    56   27   95 1    
    57   28   96 1    
    58   28   97 1    
    59   28   98 1    
    60   29   30 am   BACKBONE|DICT|INTERRES
    61   29   99 1    
    62   30   31 2    
    63   30   32 1    
    64   32   33 1    
    65   32   34 1    
    66   32  100 1    
    67   33  101 1    
    68   33  102 1    
    69   33  103 1    
    70   34   35 am   BACKBONE|DICT|INTERRES
    71   34  104 1    
    72   35   36 2    
    73   37   38 2    
    74   37   39 am   BACKBONE|DICT|INTERRES
    75   39   40 1    
    76   39  105 1    
    77   40   41 1    
    78   40   42 1    
    79   40  106 1    
    80   41  107 1    
    81   41  108 1    
    82   41  109 1    
    83   42   43 2    
    84   42   44 am   BACKBONE|DICT|INTERRES
    85   44   45 1    
    86   44  110 1    
    87   45   46 1    
    88   45   47 1    
    89   45  111 1    
    90   46  112 1    
    91   46  113 1    
    92   46  114 1    
    93   47   48 2    
    94   47   49 am   BACKBONE|DICT|INTERRES
    95   49   50 1    
    96   49  115 1    
    97   50   51 1    
    98   50   52 1    
    99   50  116 1    
   100   51  117 1    
   101   51  118 1    
   102   51  119 1    
   103   52   53 2    
   104   52   54 am   BACKBONE|DICT|INTERRES
   105   54   55 1    
   106   54  120 1    
   107   55   56 1    
   108   55   57 1    
   109   55  121 1    
   110   56  122 1    
   111   56  123 1    
   112   56  124 1    
   113   57   58 2    
   114   57   59 am   BACKBONE|DICT|INTERRES
   115   59   60 1    
   116   59  125 1    
   117   60   61 1    
   118   60   62 1    
   119   60  126 1    
   120   61  127 1    
   121   61  128 1    
   122   61  129 1    
   123   62   63 2    
   124   62   64 am   BACKBONE|DICT|INTERRES
   125   64   65 1    
   126   64  130 1    
   127   65   66 1    
   128   65   69 1    
   129   65  131 1    
   130   66   67 am   BACKBONE|DICT|INTERRES
   131   66   68 2    
   132   67  132 1    
   133   67  133 1    
   134   69   70 1    
   135   69  134 1    
   136   69  135 1    
   137   70   71 1    
   138   71  136 1    
   139   71  137 1    
@<TRIPOS>SUBSTRUCTURE
     1 UNK         1 GROUP             0       ****    0 ROOT    
