@<TRIPOS>MOLECULE
3R137
137   139    1
SMALL
USER_CHARGES


@<TRIPOS>ATOM
      1 CA         30.5817    1.1430   -2.8005 C.3       0 UNK        -0.2020 
      2 C          29.7095   -0.0963   -2.9283 C.2       0 UNK         0.4855 
      3 O          29.3671   -0.4837   -4.0425 O.2       0 UNK        -0.5197 
      4 N          29.3615   -0.7169   -1.7946 N.am      1 UNK        -0.4892 
      5 CA         28.4799   -1.8852   -1.7053 C.3       1 UNK         0.0835 
      6 C6         29.0265   -2.9117   -0.6715 C.3       12 UNK        -0.0855 
      7 S7         28.4777   -4.6210   -1.0165 S.3       12 UNK        -0.2931 
      8 C8         29.9664   -5.3608   -1.7684 C.3       12 UNK         0.0378 
      9 C9         30.3026   -4.7166   -3.1056 C.ar      12 UNK        -0.0802 
     10 C10        31.3084   -3.7479   -3.1881 C.ar      12 UNK        -0.0944 
     11 C11        31.5823   -3.1106   -4.4013 C.ar      12 UNK        -0.0787 
     12 C12        30.8642   -3.4734   -5.5429 C.ar      12 UNK        -0.0862 
     13 C13        29.8519   -4.4367   -5.4742 C.ar      12 UNK        -0.0733 
     14 C14        29.5839   -5.0645   -4.2540 C.ar      12 UNK        -0.0832 
     15 C15        29.0095   -4.7482   -6.7067 C.3       12 UNK         0.0240 
     16 S16        27.2989   -4.1190   -6.5591 S.3       12 UNK        -0.2522 
     17 C17        27.5681   -2.3696   -6.1206 C.3       12 UNK        -0.0967 
     18 CA         26.9853   -1.3667   -7.1398 C.3       5 UNK         0.0660 
     19 N          25.5225   -1.4331   -7.1782 N.am      5 UNK        -0.4015 
     20 C          24.6626   -0.5405   -7.6936 C.2       4 UNK         0.4946 
     21 O          24.9959    0.4156   -8.3968 O.2       4 UNK        -0.5353 
     22 CA         23.1855   -0.6895   -7.2769 C.3       4 UNK         0.0277 
     23 CB         22.3698   -1.3060   -8.4240 C.3       4 UNK        -0.1981 
     24 N          22.9744   -1.4746   -6.0483 N.am      4 UNK        -0.4209 
     25 C          23.5381   -1.2342   -4.8529 C.2       3 UNK         0.4942 
     26 O          24.2760   -0.2701   -4.6244 O.2       3 UNK        -0.5208 
     27 CA         23.3082   -2.2949   -3.7676 C.3       3 UNK         0.0250 
     28 CB         23.7774   -3.6903   -4.2394 C.3       3 UNK        -0.1990 
     29 N          24.0489   -1.9066   -2.5708 N.am      3 UNK        -0.4232 
     30 C          23.8939   -2.4136   -1.3444 C.2       2 UNK         0.4993 
     31 O          23.0470   -3.2627   -1.0588 O.2       2 UNK        -0.5286 
     32 CA         24.8781   -1.9110   -0.2726 C.3       2 UNK         0.0209 
     33 CB         24.6150   -2.5282    1.1144 C.3       2 UNK        -0.1931 
     34 N          26.2627   -2.1975   -0.6592 N.am      2 UNK        -0.4546 
     35 C          27.0285   -1.4187   -1.4338 C.2       1 UNK         0.5154 
     36 O          26.6139   -0.3663   -1.9253 O.2       1 UNK        -0.5181 
     37 C          27.5375    0.0294   -6.7939 C.2       5 UNK         0.5014 
     38 O          28.5425    0.4189   -7.3857 O.2       5 UNK        -0.5248 
     39 N          26.8739    0.7638   -5.8868 N.am      6 UNK        -0.4434 
     40 CA         27.2570    2.1157   -5.4701 C.3       6 UNK         0.0363 
     41 CB         26.2999    2.5928   -4.3675 C.3       6 UNK        -0.1936 
     42 C          27.3135    3.1391   -6.6208 C.2       6 UNK         0.5081 
     43 O          28.0840    4.0952   -6.5312 O.2       6 UNK        -0.5248 
     44 N          26.5223    2.9124   -7.6778 N.am      7 UNK        -0.4718 
     45 CA         26.5612    3.6751   -8.9241 C.3       7 UNK         0.0273 
     46 CB         25.1273    4.0612   -9.3231 C.3       7 UNK        -0.1935 
     47 C          27.2301    2.8699  -10.0492 C.2       7 UNK         0.5018 
     48 O          27.9943    3.4440  -10.8254 O.2       7 UNK        -0.5186 
     49 N          26.9133    1.5701  -10.1413 N.am      8 UNK        -0.4240 
     50 CA         27.3057    0.7000  -11.2520 C.3       8 UNK         0.0235 
     51 CB         26.3821   -0.5296  -11.2743 C.3       8 UNK        -0.2000 
     52 C          28.7783    0.2550  -11.2445 C.2       8 UNK         0.4941 
     53 O          29.3060   -0.0335  -12.3200 O.2       8 UNK        -0.5273 
     54 N          29.4035    0.1669  -10.0633 N.am      9 UNK        -0.4262 
     55 CA         30.7519   -0.3774   -9.8806 C.3       9 UNK         0.0264 
     56 CB         30.6590   -1.7673   -9.2254 C.3       9 UNK        -0.1955 
     57 C          31.6435    0.5566   -9.0543 C.2       9 UNK         0.5031 
     58 O          32.7705    0.8285   -9.4695 O.2       9 UNK        -0.5390 
     59 N          31.1460    1.0047   -7.8927 N.am      10 UNK        -0.4204 
     60 CA         31.7519    1.8970   -6.8915 C.3       10 UNK         0.0237 
     61 CB         31.9581    3.3074   -7.4753 C.3       10 UNK        -0.1985 
     62 C          33.0407    1.3935   -6.2054 C.2       10 UNK         0.4970 
     63 O          33.2792    1.7730   -5.0591 O.2       10 UNK        -0.4914 
     64 N          33.8428    0.5726   -6.8948 N.am      11 UNK        -0.4285 
     65 CA         35.1503    0.0392   -6.4690 C.3       11 UNK         0.1007 
     66 C          36.2691    1.1193   -6.3325 C.2       11 UNK         0.5703 
     67 N          36.1208    2.3025   -6.9177 N.am      11 UNK        -0.7361 
     68 O          37.3056    0.8763   -5.7181 O.2       11 UNK        -0.4986 
     69 C69        35.0675   -0.9037   -5.2316 C.3       12 UNK        -0.0947 
     70 S70        34.0231   -2.3745   -5.5094 S.3       12 UNK        -0.2240 
     71 C71        32.5925   -1.9740   -4.4633 C.3       12 UNK         0.0194 
     72 H72        30.2019    1.9402   -3.4383 H         1 UNK         0.0906 
     73 H73        31.6002    0.9147   -3.1118 H         1 UNK         0.0906 
     74 H74        30.6132    1.5158   -1.7771 H         1 UNK         0.0906 
     75 H75        29.6433   -0.3185   -0.9104 H         1 UNK         0.3140 
     76 H76        28.4595   -2.3755   -2.6818 H         1 UNK         0.1085 
     77 H77        30.1171   -2.9030   -0.6775 H         1 UNK         0.0836 
     78 H78        28.7542   -2.6394    0.3503 H         1 UNK         0.0836 
     79 H79        30.8054   -5.2781   -1.0755 H         1 UNK         0.0731 
     80 H80        29.7960   -6.4288   -1.9122 H         1 UNK         0.0731 
     81 H81        31.8534   -3.4631   -2.2989 H         1 UNK         0.1312 
     82 H82        31.0683   -2.9678   -6.4756 H         1 UNK         0.1406 
     83 H83        28.7891   -5.7956   -4.1906 H         1 UNK         0.1631 
     84 H84        29.4646   -4.3237   -7.6030 H         1 UNK         0.0717 
     85 H85        28.9788   -5.8276   -6.8610 H         1 UNK         0.0717 
     86 H86        27.1484   -2.1994   -5.1265 H         1 UNK         0.0934 
     87 H87        28.6359   -2.1885   -6.0117 H         1 UNK         0.0934 
     88 H88        27.3486   -1.6240   -8.1361 H         1 UNK         0.0739 
     89 H89        25.1237   -2.1951   -6.6518 H         1 UNK         0.3093 
     90 H90        22.8077    0.3171   -7.0873 H         1 UNK         0.0818 
     91 H91        21.3047   -1.3209   -8.1920 H         1 UNK         0.0819 
     92 H92        22.4900   -0.7286   -9.3421 H         1 UNK         0.0819 
     93 H93        22.6828   -2.3283   -8.6395 H         1 UNK         0.0819 
     94 H94        22.3772   -2.2845   -6.1393 H         1 UNK         0.3041 
     95 H95        22.2417   -2.3182   -3.5354 H         1 UNK         0.0784 
     96 H96        23.2303   -4.0276   -5.1200 H         1 UNK         0.0793 
     97 H97        24.8391   -3.6937   -4.4895 H         1 UNK         0.0793 
     98 H98        23.6202   -4.4465   -3.4703 H         1 UNK         0.0793 
     99 H99        24.7384   -1.1744   -2.7219 H         1 UNK         0.3024 
    100 H100       24.7386   -0.8305   -0.1874 H         1 UNK         0.1171 
    101 H101       25.2943   -2.1220    1.8640 H         1 UNK         0.0786 
    102 H102       23.5995   -2.3149    1.4510 H         1 UNK         0.0786 
    103 H103       24.7357   -3.6123    1.1049 H         1 UNK         0.0786 
    104 H104       26.6484   -3.0797   -0.3472 H         1 UNK         0.2977 
    105 H105       26.0476    0.3720   -5.4445 H         1 UNK         0.3127 
    106 H106       28.2616    2.0493   -5.0484 H         1 UNK         0.0770 
    107 H107       25.2689    2.6357   -4.7209 H         1 UNK         0.0814 
    108 H108       26.5702    3.5899   -4.0177 H         1 UNK         0.0814 
    109 H109       26.3297    1.9272   -3.5043 H         1 UNK         0.0814 
    110 H110       25.9369    2.0837   -7.6726 H         1 UNK         0.2983 
    111 H111       27.1344    4.5957   -8.7925 H         1 UNK         0.0947 
    112 H112       25.1199    4.6252  -10.2568 H         1 UNK         0.0806 
    113 H113       24.6619    4.6882   -8.5624 H         1 UNK         0.0806 
    114 H114       24.4949    3.1836   -9.4653 H         1 UNK         0.0806 
    115 H115       26.2491    1.1784   -9.4764 H         1 UNK         0.3000 
    116 H116       27.1443    1.2534  -12.1799 H         1 UNK         0.0850 
    117 H117       25.3349   -0.2384  -11.3589 H         1 UNK         0.0810 
    118 H118       26.4890   -1.1319  -10.3721 H         1 UNK         0.0810 
    119 H119       26.6084   -1.1740  -12.1250 H         1 UNK         0.0810 
    120 H120       28.9100    0.4446   -9.2188 H         1 UNK         0.3040 
    121 H121       31.2458   -0.4985  -10.8470 H         1 UNK         0.0766 
    122 H122       30.1376   -2.4725   -9.8728 H         1 UNK         0.0812 
    123 H123       30.1244   -1.7315   -8.2763 H         1 UNK         0.0812 
    124 H124       31.6508   -2.1781   -9.0306 H         1 UNK         0.0812 
    125 H125       30.2005    0.7018   -7.6486 H         1 UNK         0.3205 
    126 H126       31.0051    1.9785   -6.0995 H         1 UNK         0.0754 
    127 H127       32.6752    3.3082   -8.2966 H         1 UNK         0.0769 
    128 H128       32.3321    3.9947   -6.7151 H         1 UNK         0.0769 
    129 H129       31.0197    3.7190   -7.8482 H         1 UNK         0.0769 
    130 H130       33.5903    0.4013   -7.8642 H         1 UNK         0.2981 
    131 H131       35.4844   -0.5739   -7.3065 H         1 UNK         0.0541 
    132 H132       36.8536    2.9892   -6.8343 H         1 UNK         0.3459 
    133 H133       35.2879    2.5116   -7.4437 H         1 UNK         0.3459 
    134 H134       34.7258   -0.3582   -4.3511 H         1 UNK         0.0612 
    135 H135       36.0587   -1.2822   -4.9768 H         1 UNK         0.0612 
    136 H136       32.0993   -1.0848   -4.8570 H         1 UNK         0.0624 
    137 H137       32.9408   -1.7178   -3.4616 H         1 UNK         0.0624 
@<TRIPOS>BOND
     1    1    2 1    
     2    1   72 1    
     3    1   73 1    
     4    1   74 1    
     5    2    3 2    
     6    2    4 am   BACKBONE|DICT|INTERRES
     7    4    5 1    
     8    4   75 1    
     9    5    6 1    
    10    5   35 1    
    11    5   76 1    
    12    6    7 1    
    13    6   77 1    
    14    6   78 1    
    15    7    8 1    
    16    8    9 1    
    17    8   79 1    
    18    8   80 1    
    19    9   10 ar   
    20    9   14 ar   
    21   10   11 ar   
    22   10   81 1    
    23   11   12 ar   
    24   11   71 1    
    25   12   13 ar   
    26   12   82 1    
    27   13   14 ar   
    28   13   15 1    
    29   14   83 1    
    30   15   16 1    
    31   15   84 1    
    32   15   85 1    
    33   16   17 1    
    34   17   18 1    
    35   17   86 1    
    36   17   87 1    
    37   18   19 1    
    38   18   37 1    
    39   18   88 1    
    40   19   20 am   BACKBONE|DICT|INTERRES
    41   19   89 1    
    42   20   21 2    
    43   20   22 1    
    44   22   23 1    
    45   22   24 1    
    46   22   90 1    
    47   23   91 1    
    48   23   92 1    
    49   23   93 1    
    50   24   25 am   BACKBONE|DICT|INTERRES
    51   24   94 1    
    52   25   26 2    
    53   25   27 1    
    54   27   28 1    
    55   27   29 1    
    56   27   95 1    
    57   28   96 1    
    58   28   97 1    
    59   28   98 1    
    60   29   30 am   BACKBONE|DICT|INTERRES
    61   29   99 1    
    62   30   31 2    
    63   30   32 1    
    64   32   33 1    
    65   32   34 1    
    66   32  100 1    
    67   33  101 1    
    68   33  102 1    
    69   33  103 1    
    70   34   35 am   BACKBONE|DICT|INTERRES
    71   34  104 1    
    72   35   36 2    
    73   37   38 2    
    74   37   39 am   BACKBONE|DICT|INTERRES
    75   39   40 1    
    76   39  105 1    
    77   40   41 1    
    78   40   42 1    
    79   40  106 1    
    80   41  107 1    
    81   41  108 1    
    82   41  109 1    
    83   42   43 2    
    84   42   44 am   BACKBONE|DICT|INTERRES
    85   44   45 1    
    86   44  110 1    
    87   45   46 1    
    88   45   47 1    
    89   45  111 1    
    90   46  112 1    
    91   46  113 1    
    92   46  114 1    
    93   47   48 2    
    94   47   49 am   BACKBONE|DICT|INTERRES
    95   49   50 1    
    96   49  115 1    
    97   50   51 1    
    98   50   52 1    
    99   50  116 1    
   100   51  117 1    
   101   51  118 1    
   102   51  119 1    
   103   52   53 2    
   104   52   54 am   BACKBONE|DICT|INTERRES
   105   54   55 1    
   106   54  120 1    
   107   55   56 1    
   108   55   57 1    
   109   55  121 1    
   110   56  122 1    
   111   56  123 1    
   112   56  124 1    
   113   57   58 2    
   114   57   59 am   BACKBONE|DICT|INTERRES
   115   59   60 1    
   116   59  125 1    
   117   60   61 1    
   118   60   62 1    
   119   60  126 1    
   120   61  127 1    
   121   61  128 1    
   122   61  129 1    
   123   62   63 2    
   124   62   64 am   BACKBONE|DICT|INTERRES
   125   64   65 1    
   126   64  130 1    
   127   65   66 1    
   128   65   69 1    
   129   65  131 1    
   130   66   67 am   BACKBONE|DICT|INTERRES
   131   66   68 2    
   132   67  132 1    
   133   67  133 1    
   134   69   70 1    
   135   69  134 1    
   136   69  135 1    
   137   70   71 1    
   138   71  136 1    
   139   71  137 1    
@<TRIPOS>SUBSTRUCTURE
     1 UNK         1 GROUP             0       ****    0 ROOT    
