@<TRIPOS>MOLECULE
3R137
137   139    1
SMALL
USER_CHARGES


@<TRIPOS>ATOM
      1 CA         27.9028   -3.5860    1.8248 C.3       0 UNK        -0.2020 
      2 C          28.4921   -2.2249    2.1880 C.2       0 UNK         0.4855 
      3 O          28.6321   -1.9381    3.3756 O.2       0 UNK        -0.5197 
      4 N          28.8658   -1.3540    1.2384 N.am      1 UNK        -0.4892 
      5 CA         28.7379   -1.4437   -0.2246 C.3       1 UNK         0.0835 
      6 C6         29.4918   -2.6354   -0.8809 C.3       12 UNK        -0.0855 
      7 S7         31.2334   -2.8267   -0.3783 S.3       12 UNK        -0.2931 
      8 C8         31.5872   -4.4843   -1.0566 C.3       12 UNK         0.0378 
      9 C9         31.4388   -4.5075   -2.5722 C.ar      12 UNK        -0.0802 
     10 C10        32.5079   -4.1288   -3.3860 C.ar      12 UNK        -0.0944 
     11 C11        32.3603   -4.0743   -4.7765 C.ar      12 UNK        -0.0787 
     12 C12        31.1345   -4.4304   -5.3482 C.ar      12 UNK        -0.0862 
     13 C13        30.0504   -4.8081   -4.5458 C.ar      12 UNK        -0.0733 
     14 C14        30.2225   -4.8685   -3.1600 C.ar      12 UNK        -0.0832 
     15 C15        28.6849   -5.1631   -5.1360 C.3       12 UNK         0.0240 
     16 S16        28.2305   -4.2510   -6.6523 S.3       12 UNK        -0.2522 
     17 C17        28.3826   -2.5064   -6.1408 C.3       12 UNK        -0.0967 
     18 CA         27.5966   -1.5863   -7.1061 C.3       5 UNK         0.0660 
     19 N          26.1468   -1.6687   -6.9015 N.am      5 UNK        -0.4015 
     20 C          25.2309   -1.1989   -7.7604 C.2       4 UNK         0.4946 
     21 O          25.5069   -0.6584   -8.8306 O.2       4 UNK        -0.5353 
     22 CA         23.7582   -1.3147   -7.3343 C.3       4 UNK         0.0277 
     23 CB         23.2454   -2.7513   -7.5254 C.3       4 UNK        -0.1981 
     24 N          23.5355   -0.8873   -5.9508 N.am      4 UNK        -0.4209 
     25 C          23.7215    0.3645   -5.5063 C.2       3 UNK         0.4942 
     26 O          24.0610    1.3024   -6.2237 O.2       3 UNK        -0.5208 
     27 CA         23.5437    0.6088   -3.9993 C.3       3 UNK         0.0250 
     28 CB         22.0769    0.9341   -3.6756 C.3       3 UNK        -0.1990 
     29 N          23.9985   -0.5050   -3.1619 N.am      3 UNK        -0.4232 
     30 C          25.2461   -0.9933   -3.1444 C.2       2 UNK         0.4993 
     31 O          26.1578   -0.5970   -3.8770 O.2       2 UNK        -0.5286 
     32 CA         25.4933   -2.1758   -2.1998 C.3       2 UNK         0.0209 
     33 CB         25.2950   -3.5019   -2.9534 C.3       2 UNK        -0.1931 
     34 N          26.8483   -2.1396   -1.6542 N.am      2 UNK        -0.4546 
     35 C          27.2577   -1.3335   -0.6640 C.2       1 UNK         0.5154 
     36 O          26.5119   -0.5381   -0.0873 O.2       1 UNK        -0.5181 
     37 C          28.1026   -0.1337   -7.0434 C.2       5 UNK         0.5014 
     38 O          28.9860    0.2230   -7.8264 O.2       5 UNK        -0.5248 
     39 N          27.5193    0.6812   -6.1522 N.am      6 UNK        -0.4434 
     40 CA         27.7723    2.1199   -6.0661 C.3       6 UNK         0.0363 
     41 CB         27.1241    2.6887   -4.7943 C.3       6 UNK        -0.1936 
     42 C          27.2939    2.8755   -7.3189 C.2       6 UNK         0.5081 
     43 O          28.0565    3.6704   -7.8667 O.2       6 UNK        -0.5248 
     44 N          26.0634    2.5948   -7.7748 N.am      7 UNK        -0.4718 
     45 CA         25.4621    3.1802   -8.9794 C.3       7 UNK         0.0273 
     46 CB         23.9765    2.7958   -9.0614 C.3       7 UNK        -0.1935 
     47 C          26.1911    2.7871  -10.2742 C.2       7 UNK         0.5018 
     48 O          26.3610    3.6340  -11.1520 O.2       7 UNK        -0.5186 
     49 N          26.6385    1.5263  -10.3573 N.am      8 UNK        -0.4240 
     50 CA         27.4784    1.0106  -11.4426 C.3       8 UNK         0.0235 
     51 CB         27.4759   -0.5265  -11.3907 C.3       8 UNK        -0.2000 
     52 C          28.9264    1.5360  -11.4063 C.2       8 UNK         0.4941 
     53 O          29.6402    1.3692  -12.3960 O.2       8 UNK        -0.5273 
     54 N          29.3385    2.1276  -10.2735 N.am      9 UNK        -0.4262 
     55 CA         30.6887    2.5954   -9.9452 C.3       9 UNK         0.0264 
     56 CB         31.0975    3.7854  -10.8392 C.3       9 UNK        -0.1955 
     57 C          31.7225    1.4529   -9.9400 C.2       9 UNK         0.5031 
     58 O          32.8656    1.6528  -10.3566 O.2       9 UNK        -0.5390 
     59 N          31.3013    0.2721   -9.4641 N.am      10 UNK        -0.4204 
     60 CA         32.1498   -0.9113   -9.3138 C.3       10 UNK         0.0237 
     61 CB         31.2683   -2.1617   -9.1529 C.3       10 UNK        -0.1985 
     62 C          33.1118   -0.7623   -8.1260 C.2       10 UNK         0.4970 
     63 O          34.2770   -1.1430   -8.2374 O.2       10 UNK        -0.4914 
     64 N          32.5998   -0.1874   -7.0338 N.am      11 UNK        -0.4285 
     65 CA         33.3198    0.1838   -5.8142 C.3       11 UNK         0.1007 
     66 C          32.7442    1.5183   -5.2727 C.2       11 UNK         0.5703 
     67 N          33.5093    2.2384   -4.4641 N.am      11 UNK        -0.7361 
     68 O          31.6107    1.9000   -5.5620 O.2       11 UNK        -0.4986 
     69 C69        33.2612   -0.9366   -4.7399 C.3       12 UNK        -0.0947 
     70 S70        34.5016   -2.2487   -5.0084 S.3       12 UNK        -0.2240 
     71 C71        33.5058   -3.6253   -5.6798 C.3       12 UNK         0.0194 
     72 H72        27.1680   -3.5252    1.0251 H         1 UNK         0.0906 
     73 H73        27.3986   -4.0187    2.6887 H         1 UNK         0.0906 
     74 H74        28.6948   -4.2735    1.5300 H         1 UNK         0.0906 
     75 H75        29.2357   -0.4684    1.5543 H         1 UNK         0.3140 
     76 H76        29.2061   -0.5337   -0.6041 H         1 UNK         0.1085 
     77 H77        29.5000   -2.4953   -1.9634 H         1 UNK         0.0836 
     78 H78        28.9784   -3.5786   -0.6939 H         1 UNK         0.0836 
     79 H79        32.6020   -4.7728   -0.7782 H         1 UNK         0.0731 
     80 H80        30.9248   -5.2183   -0.5949 H         1 UNK         0.0731 
     81 H81        33.4475   -3.8492   -2.9299 H         1 UNK         0.1312 
     82 H82        31.0209   -4.3962   -6.4229 H         1 UNK         0.1406 
     83 H83        29.3961   -5.1711   -2.5316 H         1 UNK         0.1631 
     84 H84        27.9011   -4.9965   -4.3961 H         1 UNK         0.0717 
     85 H85        28.6732   -6.2304   -5.3597 H         1 UNK         0.0717 
     86 H86        28.0387   -2.3837   -5.1120 H         1 UNK         0.0934 
     87 H87        29.4452   -2.2561   -6.1374 H         1 UNK         0.0934 
     88 H88        27.7966   -1.9222   -8.1265 H         1 UNK         0.0739 
     89 H89        25.8375   -2.0618   -6.0260 H         1 UNK         0.3093 
     90 H90        23.1761   -0.6569   -7.9835 H         1 UNK         0.0818 
     91 H91        23.3932   -3.0829   -8.5543 H         1 UNK         0.0819 
     92 H92        23.7630   -3.4600   -6.8777 H         1 UNK         0.0819 
     93 H93        22.1780   -2.8222   -7.3155 H         1 UNK         0.0819 
     94 H94        23.2435   -1.5925   -5.2905 H         1 UNK         0.3041 
     95 H95        24.1492    1.4787   -3.7374 H         1 UNK         0.0784 
     96 H96        21.7232    1.7748   -4.2745 H         1 UNK         0.0793 
     97 H97        21.4187    0.0888   -3.8802 H         1 UNK         0.0793 
     98 H98        21.9531    1.2117   -2.6286 H         1 UNK         0.0793 
     99 H99        23.3109   -0.9051   -2.5393 H         1 UNK         0.3024 
    100 H100       24.7831   -2.1289   -1.3705 H         1 UNK         0.1171 
    101 H101       25.9641   -3.5858   -3.8104 H         1 UNK         0.0786 
    102 H102       25.4734   -4.3588   -2.3033 H         1 UNK         0.0786 
    103 H103       24.2745   -3.5913   -3.3281 H         1 UNK         0.0786 
    104 H104       27.5259   -2.7285   -2.1125 H         1 UNK         0.2977 
    105 H105       26.8530    0.2893   -5.4918 H         1 UNK         0.3127 
    106 H106       28.8525    2.2608   -5.9857 H         1 UNK         0.0770 
    107 H107       27.3565    3.7483   -4.6810 H         1 UNK         0.0814 
    108 H108       26.0387    2.5941   -4.8155 H         1 UNK         0.0814 
    109 H109       27.4870    2.1783   -3.9019 H         1 UNK         0.0814 
    110 H110       25.4704    1.9643   -7.2379 H         1 UNK         0.2983 
    111 H111       25.5275    4.2663   -8.8857 H         1 UNK         0.0947 
    112 H112       23.8425    1.7143   -9.1075 H         1 UNK         0.0806 
    113 H113       23.5087    3.2228   -9.9495 H         1 UNK         0.0806 
    114 H114       23.4245    3.1638   -8.1964 H         1 UNK         0.0806 
    115 H115       26.3785    0.8653   -9.6283 H         1 UNK         0.3000 
    116 H116       27.0408    1.3240  -12.3928 H         1 UNK         0.0850 
    117 H117       28.0613   -0.9489  -12.2085 H         1 UNK         0.0810 
    118 H118       26.4649   -0.9250  -11.4769 H         1 UNK         0.0810 
    119 H119       27.9033   -0.8966  -10.4579 H         1 UNK         0.0810 
    120 H120       28.6671    2.2132   -9.5200 H         1 UNK         0.3040 
    121 H121       30.6383    2.9582   -8.9172 H         1 UNK         0.0766 
    122 H122       31.2302    3.4854  -11.8790 H         1 UNK         0.0812 
    123 H123       32.0402    4.2195  -10.5040 H         1 UNK         0.0812 
    124 H124       30.3487    4.5769  -10.8102 H         1 UNK         0.0812 
    125 H125       30.3612    0.2207   -9.0735 H         1 UNK         0.3205 
    126 H126       32.7466   -1.0275  -10.2211 H         1 UNK         0.0754 
    127 H127       31.8795   -3.0615   -9.0712 H         1 UNK         0.0769 
    128 H128       30.6089   -2.2941  -10.0109 H         1 UNK         0.0769 
    129 H129       30.6461   -2.1084   -8.2596 H         1 UNK         0.0769 
    130 H130       31.6460    0.1491   -7.0617 H         1 UNK         0.2981 
    131 H131       34.3615    0.3838   -6.0736 H         1 UNK         0.0541 
    132 H132       33.1502    3.1056   -4.0969 H         1 UNK         0.3459 
    133 H133       34.4372    1.9340   -4.2138 H         1 UNK         0.3459 
    134 H134       32.2572   -1.3589   -4.6783 H         1 UNK         0.0612 
    135 H135       33.4697   -0.5345   -3.7468 H         1 UNK         0.0612 
    136 H136       33.1237   -3.3265   -6.6562 H         1 UNK         0.0624 
    137 H137       34.1646   -4.4766   -5.8542 H         1 UNK         0.0624 
@<TRIPOS>BOND
     1    1    2 1    
     2    1   72 1    
     3    1   73 1    
     4    1   74 1    
     5    2    3 2    
     6    2    4 am   BACKBONE|DICT|INTERRES
     7    4    5 1    
     8    4   75 1    
     9    5    6 1    
    10    5   35 1    
    11    5   76 1    
    12    6    7 1    
    13    6   77 1    
    14    6   78 1    
    15    7    8 1    
    16    8    9 1    
    17    8   79 1    
    18    8   80 1    
    19    9   10 ar   
    20    9   14 ar   
    21   10   11 ar   
    22   10   81 1    
    23   11   12 ar   
    24   11   71 1    
    25   12   13 ar   
    26   12   82 1    
    27   13   14 ar   
    28   13   15 1    
    29   14   83 1    
    30   15   16 1    
    31   15   84 1    
    32   15   85 1    
    33   16   17 1    
    34   17   18 1    
    35   17   86 1    
    36   17   87 1    
    37   18   19 1    
    38   18   37 1    
    39   18   88 1    
    40   19   20 am   BACKBONE|DICT|INTERRES
    41   19   89 1    
    42   20   21 2    
    43   20   22 1    
    44   22   23 1    
    45   22   24 1    
    46   22   90 1    
    47   23   91 1    
    48   23   92 1    
    49   23   93 1    
    50   24   25 am   BACKBONE|DICT|INTERRES
    51   24   94 1    
    52   25   26 2    
    53   25   27 1    
    54   27   28 1    
    55   27   29 1    
    56   27   95 1    
    57   28   96 1    
    58   28   97 1    
    59   28   98 1    
    60   29   30 am   BACKBONE|DICT|INTERRES
    61   29   99 1    
    62   30   31 2    
    63   30   32 1    
    64   32   33 1    
    65   32   34 1    
    66   32  100 1    
    67   33  101 1    
    68   33  102 1    
    69   33  103 1    
    70   34   35 am   BACKBONE|DICT|INTERRES
    71   34  104 1    
    72   35   36 2    
    73   37   38 2    
    74   37   39 am   BACKBONE|DICT|INTERRES
    75   39   40 1    
    76   39  105 1    
    77   40   41 1    
    78   40   42 1    
    79   40  106 1    
    80   41  107 1    
    81   41  108 1    
    82   41  109 1    
    83   42   43 2    
    84   42   44 am   BACKBONE|DICT|INTERRES
    85   44   45 1    
    86   44  110 1    
    87   45   46 1    
    88   45   47 1    
    89   45  111 1    
    90   46  112 1    
    91   46  113 1    
    92   46  114 1    
    93   47   48 2    
    94   47   49 am   BACKBONE|DICT|INTERRES
    95   49   50 1    
    96   49  115 1    
    97   50   51 1    
    98   50   52 1    
    99   50  116 1    
   100   51  117 1    
   101   51  118 1    
   102   51  119 1    
   103   52   53 2    
   104   52   54 am   BACKBONE|DICT|INTERRES
   105   54   55 1    
   106   54  120 1    
   107   55   56 1    
   108   55   57 1    
   109   55  121 1    
   110   56  122 1    
   111   56  123 1    
   112   56  124 1    
   113   57   58 2    
   114   57   59 am   BACKBONE|DICT|INTERRES
   115   59   60 1    
   116   59  125 1    
   117   60   61 1    
   118   60   62 1    
   119   60  126 1    
   120   61  127 1    
   121   61  128 1    
   122   61  129 1    
   123   62   63 2    
   124   62   64 am   BACKBONE|DICT|INTERRES
   125   64   65 1    
   126   64  130 1    
   127   65   66 1    
   128   65   69 1    
   129   65  131 1    
   130   66   67 am   BACKBONE|DICT|INTERRES
   131   66   68 2    
   132   67  132 1    
   133   67  133 1    
   134   69   70 1    
   135   69  134 1    
   136   69  135 1    
   137   70   71 1    
   138   71  136 1    
   139   71  137 1    
@<TRIPOS>SUBSTRUCTURE
     1 UNK         1 GROUP             0       ****    0 ROOT    
