@<TRIPOS>MOLECULE
3R137
137   139    1
SMALL
USER_CHARGES


@<TRIPOS>ATOM
      1 CA         22.9211   -5.2872   -2.5935 C.3       0 UNK        -0.2020 
      2 C          23.9762   -4.7684   -1.6293 C.2       0 UNK         0.4855 
      3 O          23.6553   -3.9954   -0.7258 O.2       0 UNK        -0.5197 
      4 N          25.2365   -5.1763   -1.8230 N.am      1 UNK        -0.4892 
      5 CA         26.4155   -4.7471   -1.0621 C.3       1 UNK         0.0835 
      6 C6         27.6973   -5.5305   -1.4636 C.3       12 UNK        -0.0855 
      7 S7         27.8597   -5.8952   -3.2516 S.3       12 UNK        -0.2931 
      8 C8         29.6438   -5.6855   -3.5355 C.3       12 UNK         0.0378 
      9 C9         29.9876   -4.2824   -4.0130 C.ar      12 UNK        -0.0802 
     10 C10        29.8993   -3.9699   -5.3735 C.ar      12 UNK        -0.0944 
     11 C11        30.2766   -2.7071   -5.8367 C.ar      12 UNK        -0.0787 
     12 C12        30.7637   -1.7638   -4.9305 C.ar      12 UNK        -0.0862 
     13 C13        30.7919   -2.0348   -3.5591 C.ar      12 UNK        -0.0733 
     14 C14        30.4146   -3.3047   -3.1080 C.ar      12 UNK        -0.0832 
     15 C15        31.2278   -0.9649   -2.5601 C.3       12 UNK         0.0240 
     16 S16        30.5390    0.6963   -2.9023 S.3       12 UNK        -0.2522 
     17 C17        28.7379    0.4003   -2.8498 C.3       12 UNK        -0.0967 
     18 CA         28.1007    0.3664   -4.2660 C.3       5 UNK         0.0660 
     19 N          26.9253   -0.5082   -4.2997 N.am      5 UNK        -0.4015 
     20 C          26.3566   -1.0675   -5.3792 C.2       4 UNK         0.4946 
     21 O          26.7520   -0.8855   -6.5335 O.2       4 UNK        -0.5353 
     22 CA         25.1337   -1.9708   -5.1456 C.3       4 UNK         0.0277 
     23 CB         25.5289   -3.4495   -5.2820 C.3       4 UNK        -0.1981 
     24 N          24.5231   -1.7469   -3.8319 N.am      4 UNK        -0.4209 
     25 C          23.6137   -0.7949   -3.5724 C.2       3 UNK         0.4942 
     26 O          23.1252   -0.0666   -4.4366 O.2       3 UNK        -0.5208 
     27 CA         23.1791   -0.6038   -2.1073 C.3       3 UNK         0.0250 
     28 CB         21.8414   -1.3117   -1.8386 C.3       3 UNK        -0.1990 
     29 N          24.1856   -1.0649   -1.1458 N.am      3 UNK        -0.4232 
     30 C          25.3096   -0.3884   -0.8606 C.2       2 UNK         0.4993 
     31 O          25.5807    0.7117   -1.3399 O.2       2 UNK        -0.5286 
     32 CA         26.3310   -1.0628    0.0753 C.3       2 UNK         0.0209 
     33 CB         26.0788   -0.6483    1.5335 C.3       2 UNK        -0.1931 
     34 N          26.3469   -2.5263   -0.0188 N.am      2 UNK        -0.4546 
     35 C          26.5983   -3.2182   -1.1391 C.2       1 UNK         0.5154 
     36 O          26.8813   -2.6850   -2.2116 O.2       1 UNK        -0.5181 
     37 C          27.8290    1.7560   -4.8869 C.2       5 UNK         0.5014 
     38 O          27.9238    2.7878   -4.2209 O.2       5 UNK        -0.5248 
     39 N          27.4942    1.7280   -6.1771 N.am      6 UNK        -0.4434 
     40 CA         27.2404    2.8472   -7.0747 C.3       6 UNK         0.0363 
     41 CB         25.8371    3.4301   -6.8348 C.3       6 UNK        -0.1936 
     42 C          27.4087    2.3846   -8.5292 C.2       6 UNK         0.5081 
     43 O          27.9166    3.1536   -9.3464 O.2       6 UNK        -0.5248 
     44 N          27.0354    1.1275   -8.8250 N.am      7 UNK        -0.4718 
     45 CA         27.2073    0.4793  -10.1284 C.3       7 UNK         0.0273 
     46 CB         26.5981   -0.9303  -10.0664 C.3       7 UNK        -0.1935 
     47 C          28.6848    0.3989  -10.5453 C.2       7 UNK         0.5018 
     48 O          29.5422    0.1661   -9.6911 O.2       7 UNK        -0.5186 
     49 N          28.9529    0.6134  -11.8419 N.am      8 UNK        -0.4240 
     50 CA         30.2862    0.6474  -12.4632 C.3       8 UNK         0.0235 
     51 CB         30.8937   -0.7723  -12.5048 C.3       8 UNK        -0.2000 
     52 C          31.2307    1.6829  -11.8138 C.2       8 UNK         0.4941 
     53 O          32.4153    1.3994  -11.6329 O.2       8 UNK        -0.5273 
     54 N          30.6699    2.8478  -11.4458 N.am      9 UNK        -0.4262 
     55 CA         31.2969    3.9341  -10.6784 C.3       9 UNK         0.0264 
     56 CB         32.4241    4.6097  -11.4893 C.3       9 UNK        -0.1955 
     57 C          31.7464    3.4753   -9.2751 C.2       9 UNK         0.5031 
     58 O          32.8492    3.8089   -8.8384 O.2       9 UNK        -0.5390 
     59 N          30.8678    2.7105   -8.6100 N.am      10 UNK        -0.4204 
     60 CA         31.0594    2.0228   -7.3275 C.3       10 UNK         0.0237 
     61 CB         31.2236    3.0315   -6.1711 C.3       10 UNK        -0.1985 
     62 C          32.1752    0.9605   -7.3823 C.2       10 UNK         0.4970 
     63 O          32.9537    0.8395   -6.4347 O.2       10 UNK        -0.4914 
     64 N          32.1990    0.1930   -8.4811 N.am      11 UNK        -0.4285 
     65 CA         33.1483   -0.8906   -8.7834 C.3       11 UNK         0.1007 
     66 C          34.6427   -0.4376   -8.8393 C.2       11 UNK         0.5703 
     67 N          35.5840   -1.3694   -8.9291 N.am      11 UNK        -0.7361 
     68 O          34.9715    0.7468   -8.8630 O.2       11 UNK        -0.4986 
     69 C69        32.8948   -2.1432   -7.8882 C.3       12 UNK        -0.0947 
     70 S70        31.3879   -3.0512   -8.3744 S.3       12 UNK        -0.2240 
     71 C71        30.1026   -2.3379   -7.3025 C.3       12 UNK         0.0194 
     72 H72        22.5647   -4.4786   -3.2312 H         1 UNK         0.0906 
     73 H73        23.3103   -6.0785   -3.2342 H         1 UNK         0.0906 
     74 H74        22.0713   -5.6870   -2.0408 H         1 UNK         0.0906 
     75 H75        25.4519   -5.7821   -2.6034 H         1 UNK         0.3140 
     76 H76        26.2128   -4.9938   -0.0175 H         1 UNK         0.1085 
     77 H77        27.6942   -6.4936   -0.9509 H         1 UNK         0.0836 
     78 H78        28.5917   -5.0195   -1.1024 H         1 UNK         0.0836 
     79 H79        29.9588   -6.4080   -4.2901 H         1 UNK         0.0731 
     80 H80        30.2036   -5.9373   -2.6335 H         1 UNK         0.0731 
     81 H81        29.5367   -4.7100   -6.0736 H         1 UNK         0.1312 
     82 H82        31.0701   -0.7908   -5.2864 H         1 UNK         0.1406 
     83 H83        30.4573   -3.5356   -2.0526 H         1 UNK         0.1631 
     84 H84        32.3164   -0.9001   -2.5730 H         1 UNK         0.0717 
     85 H85        30.9465   -1.2507   -1.5453 H         1 UNK         0.0717 
     86 H86        28.5784   -0.5530   -2.3440 H         1 UNK         0.0934 
     87 H87        28.2626    1.1493   -2.2136 H         1 UNK         0.0934 
     88 H88        28.8161   -0.0992   -4.9395 H         1 UNK         0.0739 
     89 H89        26.5471   -0.7607   -3.3974 H         1 UNK         0.3093 
     90 H90        24.4041   -1.7438   -5.9259 H         1 UNK         0.0818 
     91 H91        26.2990   -3.7289   -4.5633 H         1 UNK         0.0819 
     92 H92        24.6734   -4.1081   -5.1340 H         1 UNK         0.0819 
     93 H93        25.9290   -3.6540   -6.2760 H         1 UNK         0.0819 
     94 H94        24.9200   -2.2716   -3.0624 H         1 UNK         0.3041 
     95 H95        23.0246    0.4665   -1.9524 H         1 UNK         0.0784 
     96 H96        21.0609   -0.9304   -2.4986 H         1 UNK         0.0793 
     97 H97        21.9078   -2.3864   -2.0039 H         1 UNK         0.0793 
     98 H98        21.5055   -1.1504   -0.8141 H         1 UNK         0.0793 
     99 H99        24.0423   -1.9849   -0.7384 H         1 UNK         0.3024 
    100 H100       27.3207   -0.7041   -0.2148 H         1 UNK         0.1171 
    101 H101       26.0838    0.4378    1.6368 H         1 UNK         0.0786 
    102 H102       25.1133   -1.0055    1.8942 H         1 UNK         0.0786 
    103 H103       26.8514   -1.0376    2.1968 H         1 UNK         0.0786 
    104 H104       26.0754   -3.0317    0.8127 H         1 UNK         0.2977 
    105 H105       27.4097    0.7990   -6.5858 H         1 UNK         0.3127 
    106 H106       27.9853    3.6221   -6.8830 H         1 UNK         0.0770 
    107 H107       25.0591    2.6789   -6.9769 H         1 UNK         0.0814 
    108 H108       25.6326    4.2499   -7.5247 H         1 UNK         0.0814 
    109 H109       25.7388    3.8260   -5.8239 H         1 UNK         0.0814 
    110 H110       26.6460    0.5365   -8.1011 H         1 UNK         0.2983 
    111 H111       26.6606    1.0695  -10.8668 H         1 UNK         0.0947 
    112 H112       26.6835   -1.4382  -11.0280 H         1 UNK         0.0806 
    113 H113       25.5389   -0.8959   -9.8110 H         1 UNK         0.0806 
    114 H114       27.1013   -1.5516   -9.3235 H         1 UNK         0.0806 
    115 H115       28.1789    0.7994  -12.4654 H         1 UNK         0.3000 
    116 H116       30.1429    0.9756  -13.4939 H         1 UNK         0.0850 
    117 H117       31.0913   -1.1586  -11.5045 H         1 UNK         0.0810 
    118 H118       30.2270   -1.4734  -13.0066 H         1 UNK         0.0810 
    119 H119       31.8386   -0.7804  -13.0497 H         1 UNK         0.0810 
    120 H120       29.6824    2.9664  -11.6293 H         1 UNK         0.3040 
    121 H121       30.5182    4.6811  -10.5154 H         1 UNK         0.0766 
    122 H122       32.8006    5.4926  -10.9716 H         1 UNK         0.0812 
    123 H123       32.0701    4.9346  -12.4675 H         1 UNK         0.0812 
    124 H124       33.2708    3.9401  -11.6434 H         1 UNK         0.0812 
    125 H125       29.9924    2.5080   -9.0797 H         1 UNK         0.3205 
    126 H126       30.1400    1.4662   -7.1462 H         1 UNK         0.0754 
    127 H127       31.2362    2.5212   -5.2078 H         1 UNK         0.0769 
    128 H128       30.4004    3.7451   -6.1451 H         1 UNK         0.0769 
    129 H129       32.1544    3.5933   -6.2513 H         1 UNK         0.0769 
    130 H130       31.4732    0.3384   -9.1748 H         1 UNK         0.2981 
    131 H131       32.9287   -1.1668   -9.8150 H         1 UNK         0.0541 
    132 H132       36.5486   -1.0831   -8.9879 H         1 UNK         0.3459 
    133 H133       35.3502   -2.3493   -8.9466 H         1 UNK         0.3459 
    134 H134       32.8574   -1.8765   -6.8322 H         1 UNK         0.0612 
    135 H135       33.7042   -2.8679   -7.9744 H         1 UNK         0.0612 
    136 H136       30.0775   -1.2557   -7.4274 H         1 UNK         0.0624 
    137 H137       29.1299   -2.6937   -7.6450 H         1 UNK         0.0624 
@<TRIPOS>BOND
     1    1    2 1    
     2    1   72 1    
     3    1   73 1    
     4    1   74 1    
     5    2    3 2    
     6    2    4 am   BACKBONE|DICT|INTERRES
     7    4    5 1    
     8    4   75 1    
     9    5    6 1    
    10    5   35 1    
    11    5   76 1    
    12    6    7 1    
    13    6   77 1    
    14    6   78 1    
    15    7    8 1    
    16    8    9 1    
    17    8   79 1    
    18    8   80 1    
    19    9   10 ar   
    20    9   14 ar   
    21   10   11 ar   
    22   10   81 1    
    23   11   12 ar   
    24   11   71 1    
    25   12   13 ar   
    26   12   82 1    
    27   13   14 ar   
    28   13   15 1    
    29   14   83 1    
    30   15   16 1    
    31   15   84 1    
    32   15   85 1    
    33   16   17 1    
    34   17   18 1    
    35   17   86 1    
    36   17   87 1    
    37   18   19 1    
    38   18   37 1    
    39   18   88 1    
    40   19   20 am   BACKBONE|DICT|INTERRES
    41   19   89 1    
    42   20   21 2    
    43   20   22 1    
    44   22   23 1    
    45   22   24 1    
    46   22   90 1    
    47   23   91 1    
    48   23   92 1    
    49   23   93 1    
    50   24   25 am   BACKBONE|DICT|INTERRES
    51   24   94 1    
    52   25   26 2    
    53   25   27 1    
    54   27   28 1    
    55   27   29 1    
    56   27   95 1    
    57   28   96 1    
    58   28   97 1    
    59   28   98 1    
    60   29   30 am   BACKBONE|DICT|INTERRES
    61   29   99 1    
    62   30   31 2    
    63   30   32 1    
    64   32   33 1    
    65   32   34 1    
    66   32  100 1    
    67   33  101 1    
    68   33  102 1    
    69   33  103 1    
    70   34   35 am   BACKBONE|DICT|INTERRES
    71   34  104 1    
    72   35   36 2    
    73   37   38 2    
    74   37   39 am   BACKBONE|DICT|INTERRES
    75   39   40 1    
    76   39  105 1    
    77   40   41 1    
    78   40   42 1    
    79   40  106 1    
    80   41  107 1    
    81   41  108 1    
    82   41  109 1    
    83   42   43 2    
    84   42   44 am   BACKBONE|DICT|INTERRES
    85   44   45 1    
    86   44  110 1    
    87   45   46 1    
    88   45   47 1    
    89   45  111 1    
    90   46  112 1    
    91   46  113 1    
    92   46  114 1    
    93   47   48 2    
    94   47   49 am   BACKBONE|DICT|INTERRES
    95   49   50 1    
    96   49  115 1    
    97   50   51 1    
    98   50   52 1    
    99   50  116 1    
   100   51  117 1    
   101   51  118 1    
   102   51  119 1    
   103   52   53 2    
   104   52   54 am   BACKBONE|DICT|INTERRES
   105   54   55 1    
   106   54  120 1    
   107   55   56 1    
   108   55   57 1    
   109   55  121 1    
   110   56  122 1    
   111   56  123 1    
   112   56  124 1    
   113   57   58 2    
   114   57   59 am   BACKBONE|DICT|INTERRES
   115   59   60 1    
   116   59  125 1    
   117   60   61 1    
   118   60   62 1    
   119   60  126 1    
   120   61  127 1    
   121   61  128 1    
   122   61  129 1    
   123   62   63 2    
   124   62   64 am   BACKBONE|DICT|INTERRES
   125   64   65 1    
   126   64  130 1    
   127   65   66 1    
   128   65   69 1    
   129   65  131 1    
   130   66   67 am   BACKBONE|DICT|INTERRES
   131   66   68 2    
   132   67  132 1    
   133   67  133 1    
   134   69   70 1    
   135   69  134 1    
   136   69  135 1    
   137   70   71 1    
   138   71  136 1    
   139   71  137 1    
@<TRIPOS>SUBSTRUCTURE
     1 UNK         1 GROUP             0       ****    0 ROOT    
