@<TRIPOS>MOLECULE
3R137
137   139    1
SMALL
USER_CHARGES


@<TRIPOS>ATOM
      1 CA         23.5704   -5.8686   -4.0062 C.3       0 UNK        -0.2020 
      2 C          24.6952   -5.0389   -3.4088 C.2       0 UNK         0.4855 
      3 O          25.0575   -4.0075   -3.9762 O.2       0 UNK        -0.5197 
      4 N          25.2306   -5.4586   -2.2529 N.am      1 UNK        -0.4892 
      5 CA         26.3611   -4.8802   -1.5004 C.3       1 UNK         0.0835 
      6 C6         27.6789   -4.8620   -2.3250 C.3       12 UNK        -0.0855 
      7 S7         29.1386   -5.2041   -1.2908 S.3       12 UNK        -0.2931 
      8 C8         30.4891   -5.0007   -2.5008 C.3       12 UNK         0.0378 
      9 C9         30.7215   -3.5539   -2.9299 C.ar      12 UNK        -0.0802 
     10 C10        30.9543   -3.2565   -4.2771 C.ar      12 UNK        -0.0944 
     11 C11        31.2238   -1.9473   -4.6884 C.ar      12 UNK        -0.0787 
     12 C12        31.2619   -0.9318   -3.7256 C.ar      12 UNK        -0.0862 
     13 C13        30.9804   -1.1993   -2.3838 C.ar      12 UNK        -0.0733 
     14 C14        30.7352   -2.5171   -1.9899 C.ar      12 UNK        -0.0832 
     15 C15        30.9224   -0.0731   -1.3538 C.3       12 UNK         0.0240 
     16 S16        30.0400    1.4235   -1.9321 S.3       12 UNK        -0.2522 
     17 C17        28.4570    0.7518   -2.5482 C.3       12 UNK        -0.0967 
     18 CA         28.3446    0.8547   -4.0951 C.3       5 UNK         0.0660 
     19 N          27.5731   -0.2493   -4.6664 N.am      5 UNK        -0.4015 
     20 C          27.5623   -0.5931   -5.9622 C.2       4 UNK         0.4946 
     21 O          28.2341   -0.0406   -6.8318 O.2       4 UNK        -0.5353 
     22 CA         26.6111   -1.7298   -6.3665 C.3       4 UNK         0.0277 
     23 CB         27.3043   -3.0908   -6.1910 C.3       4 UNK        -0.1981 
     24 N          25.3552   -1.7133   -5.6116 N.am      4 UNK        -0.4209 
     25 C          24.4564   -0.7175   -5.6557 C.2       3 UNK         0.4942 
     26 O          24.5607    0.2666   -6.3865 O.2       3 UNK        -0.5208 
     27 CA         23.2783   -0.7983   -4.6713 C.3       3 UNK         0.0250 
     28 CB         22.1919   -1.7458   -5.2042 C.3       3 UNK        -0.1990 
     29 N          23.6844   -1.2223   -3.3284 N.am      3 UNK        -0.4232 
     30 C          24.5623   -0.5770   -2.5440 C.2       2 UNK         0.4993 
     31 O          25.1076    0.4828   -2.8492 O.2       2 UNK        -0.5286 
     32 CA         24.9627   -1.2846   -1.2472 C.3       2 UNK         0.0209 
     33 CB         23.8362   -1.2338   -0.1991 C.3       2 UNK        -0.1931 
     34 N          25.3221   -2.6606   -1.5731 N.am      2 UNK        -0.4546 
     35 C          26.0703   -3.5012   -0.8578 C.2       1 UNK         0.5154 
     36 O          26.5145   -3.2347    0.2596 O.2       1 UNK        -0.5181 
     37 C          27.7971    2.2185   -4.5544 C.2       5 UNK         0.5014 
     38 O          28.5762    3.0719   -4.9798 O.2       5 UNK        -0.5248 
     39 N          26.4667    2.3816   -4.5034 N.am      6 UNK        -0.4434 
     40 CA         25.7487    3.5653   -4.9831 C.3       6 UNK         0.0363 
     41 CB         24.2645    3.4548   -4.5994 C.3       6 UNK        -0.1936 
     42 C          25.9067    3.7928   -6.4973 C.2       6 UNK         0.5081 
     43 O          26.0933    4.9334   -6.9218 O.2       6 UNK        -0.5248 
     44 N          25.8511    2.7070   -7.2804 N.am      7 UNK        -0.4718 
     45 CA         26.0694    2.7151   -8.7297 C.3       7 UNK         0.0273 
     46 CB         25.5075    1.4123   -9.3226 C.3       7 UNK        -0.1935 
     47 C          27.5465    2.8792   -9.1340 C.2       7 UNK         0.5018 
     48 O          27.8080    3.2619  -10.2751 O.2       7 UNK        -0.5186 
     49 N          28.4702    2.5543   -8.2162 N.am      8 UNK        -0.4240 
     50 CA         29.9202    2.4211   -8.4074 C.3       8 UNK         0.0235 
     51 CB         30.5724    3.7855   -8.7126 C.3       8 UNK        -0.2000 
     52 C          30.2631    1.3328   -9.4458 C.2       8 UNK         0.4941 
     53 O          31.1252    1.5387  -10.3037 O.2       8 UNK        -0.5273 
     54 N          29.5504    0.2006   -9.3615 N.am      9 UNK        -0.4262 
     55 CA         29.6087   -0.9224  -10.2966 C.3       9 UNK         0.0264 
     56 CB         28.4612   -1.8959   -9.9795 C.3       9 UNK        -0.1955 
     57 C          30.9737   -1.6244  -10.2445 C.2       9 UNK         0.5031 
     58 O          31.2468   -2.3484   -9.2868 O.2       9 UNK        -0.5390 
     59 N          31.8212   -1.3565  -11.2474 N.am      10 UNK        -0.4204 
     60 CA         33.2132   -1.8040  -11.4232 C.3       10 UNK         0.0237 
     61 CB         33.3249   -3.3415  -11.4529 C.3       10 UNK        -0.1985 
     62 C          34.2149   -1.1902  -10.4250 C.2       10 UNK         0.4970 
     63 O          35.3475   -0.9095  -10.8192 O.2       10 UNK        -0.4914 
     64 N          33.7929   -0.9729   -9.1747 N.am      11 UNK        -0.4285 
     65 CA         34.5466   -0.2690   -8.1271 C.3       11 UNK         0.1007 
     66 C          34.7727    1.2504   -8.3887 C.2       11 UNK         0.5703 
     67 N          33.9998    1.9067   -9.2475 N.am      11 UNK        -0.7361 
     68 O          35.6822    1.8401   -7.8099 O.2       11 UNK        -0.4986 
     69 C69        33.9507   -0.5303   -6.7170 C.3       12 UNK        -0.0947 
     70 S70        32.1882   -0.0699   -6.5928 S.3       12 UNK        -0.2240 
     71 C71        31.3969   -1.6645   -6.1816 C.3       12 UNK         0.0194 
     72 H72        23.8386   -6.1892   -5.0124 H         1 UNK         0.0906 
     73 H73        23.3572   -6.7570   -3.4122 H         1 UNK         0.0906 
     74 H74        22.6593   -5.2744   -4.0698 H         1 UNK         0.0906 
     75 H75        24.8412   -6.2900   -1.8283 H         1 UNK         0.3140 
     76 H76        26.4945   -5.5684   -0.6635 H         1 UNK         0.1085 
     77 H77        27.8116   -3.9154   -2.8523 H         1 UNK         0.0836 
     78 H78        27.6530   -5.6308   -3.0991 H         1 UNK         0.0836 
     79 H79        30.2829   -5.6340   -3.3653 H         1 UNK         0.0731 
     80 H80        31.4113   -5.3781   -2.0572 H         1 UNK         0.0731 
     81 H81        30.9262   -4.0487   -5.0130 H         1 UNK         0.1312 
     82 H82        31.4646    0.0882   -4.0158 H         1 UNK         0.1406 
     83 H83        30.5445   -2.7376   -0.9482 H         1 UNK         0.1631 
     84 H84        31.9407    0.2039   -1.0785 H         1 UNK         0.0717 
     85 H85        30.4380   -0.4187   -0.4391 H         1 UNK         0.0717 
     86 H86        28.3786   -0.2882   -2.2278 H         1 UNK         0.0934 
     87 H87        27.6345    1.2659   -2.0467 H         1 UNK         0.0934 
     88 H88        29.3418    0.7718   -4.5278 H         1 UNK         0.0739 
     89 H89        26.9451   -0.7298   -4.0411 H         1 UNK         0.3093 
     90 H90        26.3682   -1.5993   -7.4230 H         1 UNK         0.0818 
     91 H91        28.2385   -3.1337   -6.7518 H         1 UNK         0.0819 
     92 H92        26.6734   -3.9058   -6.5459 H         1 UNK         0.0819 
     93 H93        27.5474   -3.2880   -5.1470 H         1 UNK         0.0819 
     94 H94        25.1808   -2.5118   -5.0029 H         1 UNK         0.3041 
     95 H95        22.8501    0.2026   -4.5858 H         1 UNK         0.0784 
     96 H96        21.8631   -1.4409   -6.1988 H         1 UNK         0.0793 
     97 H97        22.5516   -2.7730   -5.2803 H         1 UNK         0.0793 
     98 H98        21.3125   -1.7442   -4.5599 H         1 UNK         0.0793 
     99 H99        23.2765   -2.0812   -2.9898 H         1 UNK         0.3024 
    100 H100       25.8431   -0.7770   -0.8462 H         1 UNK         0.1171 
    101 H101       24.1565   -1.6691    0.7476 H         1 UNK         0.0786 
    102 H102       23.5396   -0.2039    0.0042 H         1 UNK         0.0786 
    103 H103       22.9474   -1.7727   -0.5289 H         1 UNK         0.0786 
    104 H104       25.0758   -2.9873   -2.5059 H         1 UNK         0.2977 
    105 H105       25.9041    1.6447   -4.0820 H         1 UNK         0.3127 
    106 H106       26.1692    4.4342   -4.4726 H         1 UNK         0.0770 
    107 H107       23.7891    2.5933   -5.0695 H         1 UNK         0.0814 
    108 H108       23.7137    4.3428   -4.9120 H         1 UNK         0.0814 
    109 H109       24.1396    3.3572   -3.5208 H         1 UNK         0.0814 
    110 H110       25.6073    1.8126   -6.8603 H         1 UNK         0.2983 
    111 H111       25.5172    3.5547   -9.1577 H         1 UNK         0.0947 
    112 H112       25.6249    1.3908  -10.4069 H         1 UNK         0.0806 
    113 H113       24.4438    1.3054   -9.1089 H         1 UNK         0.0806 
    114 H114       26.0183    0.5363   -8.9207 H         1 UNK         0.0806 
    115 H115       28.1296    2.2183   -7.3239 H         1 UNK         0.3000 
    116 H116       30.3158    2.0731   -7.4526 H         1 UNK         0.0850 
    117 H117       31.6596    3.7023   -8.7186 H         1 UNK         0.0810 
    118 H118       30.3082    4.5270   -7.9587 H         1 UNK         0.0810 
    119 H119       30.2708    4.1719   -9.6864 H         1 UNK         0.0810 
    120 H120       28.9444    0.0908   -8.5502 H         1 UNK         0.3040 
    121 H121       29.4488   -0.5310  -11.3034 H         1 UNK         0.0766 
    122 H122       27.4899   -1.4103  -10.0739 H         1 UNK         0.0812 
    123 H123       28.5403   -2.2921   -8.9671 H         1 UNK         0.0812 
    124 H124       28.4692   -2.7453  -10.6637 H         1 UNK         0.0812 
    125 H125       31.5092   -0.6840  -11.9356 H         1 UNK         0.3205 
    126 H126       33.5073   -1.4410  -12.4094 H         1 UNK         0.0754 
    127 H127       34.3386   -3.6509  -11.7108 H         1 UNK         0.0769 
    128 H128       32.6551   -3.7737  -12.1963 H         1 UNK         0.0769 
    129 H129       33.0888   -3.7891  -10.4872 H         1 UNK         0.0769 
    130 H130       32.8540   -1.2724   -8.9319 H         1 UNK         0.2981 
    131 H131       35.5459   -0.7084   -8.1254 H         1 UNK         0.0541 
    132 H132       33.2111    1.4586   -9.6950 H         1 UNK         0.3459 
    133 H133       34.1754    2.8846   -9.4105 H         1 UNK         0.3459 
    134 H134       34.0705   -1.5837   -6.4616 H         1 UNK         0.0612 
    135 H135       34.5052    0.0167   -5.9524 H         1 UNK         0.0612 
    136 H136       30.4078   -1.6688   -6.6395 H         1 UNK         0.0624 
    137 H137       31.9489   -2.4773   -6.6551 H         1 UNK         0.0624 
@<TRIPOS>BOND
     1    1    2 1    
     2    1   72 1    
     3    1   73 1    
     4    1   74 1    
     5    2    3 2    
     6    2    4 am   BACKBONE|DICT|INTERRES
     7    4    5 1    
     8    4   75 1    
     9    5    6 1    
    10    5   35 1    
    11    5   76 1    
    12    6    7 1    
    13    6   77 1    
    14    6   78 1    
    15    7    8 1    
    16    8    9 1    
    17    8   79 1    
    18    8   80 1    
    19    9   10 ar   
    20    9   14 ar   
    21   10   11 ar   
    22   10   81 1    
    23   11   12 ar   
    24   11   71 1    
    25   12   13 ar   
    26   12   82 1    
    27   13   14 ar   
    28   13   15 1    
    29   14   83 1    
    30   15   16 1    
    31   15   84 1    
    32   15   85 1    
    33   16   17 1    
    34   17   18 1    
    35   17   86 1    
    36   17   87 1    
    37   18   19 1    
    38   18   37 1    
    39   18   88 1    
    40   19   20 am   BACKBONE|DICT|INTERRES
    41   19   89 1    
    42   20   21 2    
    43   20   22 1    
    44   22   23 1    
    45   22   24 1    
    46   22   90 1    
    47   23   91 1    
    48   23   92 1    
    49   23   93 1    
    50   24   25 am   BACKBONE|DICT|INTERRES
    51   24   94 1    
    52   25   26 2    
    53   25   27 1    
    54   27   28 1    
    55   27   29 1    
    56   27   95 1    
    57   28   96 1    
    58   28   97 1    
    59   28   98 1    
    60   29   30 am   BACKBONE|DICT|INTERRES
    61   29   99 1    
    62   30   31 2    
    63   30   32 1    
    64   32   33 1    
    65   32   34 1    
    66   32  100 1    
    67   33  101 1    
    68   33  102 1    
    69   33  103 1    
    70   34   35 am   BACKBONE|DICT|INTERRES
    71   34  104 1    
    72   35   36 2    
    73   37   38 2    
    74   37   39 am   BACKBONE|DICT|INTERRES
    75   39   40 1    
    76   39  105 1    
    77   40   41 1    
    78   40   42 1    
    79   40  106 1    
    80   41  107 1    
    81   41  108 1    
    82   41  109 1    
    83   42   43 2    
    84   42   44 am   BACKBONE|DICT|INTERRES
    85   44   45 1    
    86   44  110 1    
    87   45   46 1    
    88   45   47 1    
    89   45  111 1    
    90   46  112 1    
    91   46  113 1    
    92   46  114 1    
    93   47   48 2    
    94   47   49 am   BACKBONE|DICT|INTERRES
    95   49   50 1    
    96   49  115 1    
    97   50   51 1    
    98   50   52 1    
    99   50  116 1    
   100   51  117 1    
   101   51  118 1    
   102   51  119 1    
   103   52   53 2    
   104   52   54 am   BACKBONE|DICT|INTERRES
   105   54   55 1    
   106   54  120 1    
   107   55   56 1    
   108   55   57 1    
   109   55  121 1    
   110   56  122 1    
   111   56  123 1    
   112   56  124 1    
   113   57   58 2    
   114   57   59 am   BACKBONE|DICT|INTERRES
   115   59   60 1    
   116   59  125 1    
   117   60   61 1    
   118   60   62 1    
   119   60  126 1    
   120   61  127 1    
   121   61  128 1    
   122   61  129 1    
   123   62   63 2    
   124   62   64 am   BACKBONE|DICT|INTERRES
   125   64   65 1    
   126   64  130 1    
   127   65   66 1    
   128   65   69 1    
   129   65  131 1    
   130   66   67 am   BACKBONE|DICT|INTERRES
   131   66   68 2    
   132   67  132 1    
   133   67  133 1    
   134   69   70 1    
   135   69  134 1    
   136   69  135 1    
   137   70   71 1    
   138   71  136 1    
   139   71  137 1    
@<TRIPOS>SUBSTRUCTURE
     1 UNK         1 GROUP             0       ****    0 ROOT    
