@<TRIPOS>MOLECULE
3R137
137   139    1
SMALL
USER_CHARGES


@<TRIPOS>ATOM
      1 CA         25.7757   -4.9004   -3.3662 C.3       0 UNK        -0.2020 
      2 C          26.1933   -3.7035   -2.5250 C.2       0 UNK         0.4855 
      3 O          26.3065   -2.6008   -3.0603 O.2       0 UNK        -0.5197 
      4 N          26.3978   -3.9356   -1.2163 N.am      1 UNK        -0.4892 
      5 CA         26.7789   -2.9822   -0.1556 C.3       1 UNK         0.0835 
      6 C6         28.3133   -2.7675    0.0108 C.3       12 UNK        -0.0855 
      7 S7         29.2079   -2.2080   -1.4789 S.3       12 UNK        -0.2931 
      8 C8         30.2348   -3.6638   -1.8436 C.3       12 UNK         0.0378 
      9 C9         30.6292   -3.7116   -3.3111 C.ar      12 UNK        -0.0802 
     10 C10        31.6788   -2.9244   -3.7929 C.ar      12 UNK        -0.0944 
     11 C11        32.0508   -2.9814   -5.1408 C.ar      12 UNK        -0.0787 
     12 C12        31.3675   -3.8446   -6.0060 C.ar      12 UNK        -0.0862 
     13 C13        30.3275   -4.6508   -5.5296 C.ar      12 UNK        -0.0733 
     14 C14        29.9591   -4.5718   -4.1839 C.ar      12 UNK        -0.0832 
     15 C15        29.6364   -5.6540   -6.4452 C.3       12 UNK         0.0240 
     16 S16        28.5257   -4.8778   -7.6594 S.3       12 UNK        -0.2522 
     17 C17        27.2645   -4.0835   -6.6021 C.3       12 UNK        -0.0967 
     18 CA         26.7960   -2.7273   -7.1870 C.3       5 UNK         0.0660 
     19 N          25.6648   -2.1246   -6.4946 N.am      5 UNK        -0.4015 
     20 C          24.4134   -2.5699   -6.4108 C.2       4 UNK         0.4946 
     21 O          24.0559   -3.6724   -6.8294 O.2       4 UNK        -0.5353 
     22 CA         23.3740   -1.6048   -5.7901 C.3       4 UNK         0.0277 
     23 CB         22.1172   -2.3492   -5.3003 C.3       4 UNK        -0.1981 
     24 N          23.8482   -0.7401   -4.6980 N.am      4 UNK        -0.4209 
     25 C          24.7730    0.2291   -4.7266 C.2       3 UNK         0.4942 
     26 O          25.4650    0.4786   -5.7150 O.2       3 UNK        -0.5208 
     27 CA         24.9945    1.0659   -3.4514 C.3       3 UNK         0.0250 
     28 CB         24.2318    2.4011   -3.5433 C.3       3 UNK        -0.1990 
     29 N          24.7198    0.3871   -2.1754 N.am      3 UNK        -0.4232 
     30 C          23.5644   -0.0876   -1.6896 C.2       2 UNK         0.4993 
     31 O          22.4989   -0.0541   -2.3071 O.2       2 UNK        -0.5286 
     32 CA         23.6285   -0.7571   -0.3033 C.3       2 UNK         0.0209 
     33 CB         22.2648   -1.3113    0.1520 C.3       2 UNK        -0.1931 
     34 N          24.6129   -1.8423   -0.2728 N.am      2 UNK        -0.4546 
     35 C          25.9375   -1.6856   -0.1398 C.2       1 UNK         0.5154 
     36 O          26.4722   -0.5808   -0.0194 O.2       1 UNK        -0.5181 
     37 C          27.9119   -1.6749   -7.2065 C.2       5 UNK         0.5014 
     38 O          28.4209   -1.3567   -8.2807 O.2       5 UNK        -0.5248 
     39 N          28.2302   -1.1056   -6.0335 N.am      6 UNK        -0.4434 
     40 CA         29.2786   -0.0981   -5.8584 C.3       6 UNK         0.0363 
     41 CB         29.4051    0.2716   -4.3751 C.3       6 UNK        -0.1936 
     42 C          29.1082    1.1660   -6.7159 C.2       6 UNK         0.5081 
     43 O          30.1044    1.6857   -7.2191 O.2       6 UNK        -0.5248 
     44 N          27.8601    1.6171   -6.9053 N.am      7 UNK        -0.4718 
     45 CA         27.5232    2.7578   -7.7612 C.3       7 UNK         0.0273 
     46 CB         26.0877    3.2152   -7.4588 C.3       7 UNK        -0.1935 
     47 C          27.6901    2.4626   -9.2627 C.2       7 UNK         0.5018 
     48 O          27.9721    3.3873  -10.0249 O.2       7 UNK        -0.5186 
     49 N          27.5227    1.1933   -9.6609 N.am      8 UNK        -0.4240 
     50 CA         27.7328    0.7233  -11.0319 C.3       8 UNK         0.0235 
     51 CB         26.8887   -0.5368  -11.2873 C.3       8 UNK        -0.2000 
     52 C          29.2204    0.4561  -11.3055 C.2       8 UNK         0.4941 
     53 O          29.7146    0.8202  -12.3730 O.2       8 UNK        -0.5273 
     54 N          29.9091   -0.1530  -10.3293 N.am      9 UNK        -0.4262 
     55 CA         31.3509   -0.4108  -10.3473 C.3       9 UNK         0.0264 
     56 CB         31.7043   -1.3655   -9.1942 C.3       9 UNK        -0.1955 
     57 C          32.1995    0.8704  -10.2583 C.2       9 UNK         0.5031 
     58 O          33.3209    0.8801  -10.7676 O.2       9 UNK        -0.5390 
     59 N          31.6552    1.9090   -9.6050 N.am      10 UNK        -0.4204 
     60 CA         32.2688    3.2078   -9.3047 C.3       10 UNK         0.0237 
     61 CB         32.5867    3.9919  -10.5960 C.3       10 UNK        -0.1985 
     62 C          33.4731    3.0860   -8.3505 C.2       10 UNK         0.4970 
     63 O          34.4217    3.8663   -8.4526 O.2       10 UNK        -0.4914 
     64 N          33.4094    2.1076   -7.4387 N.am      11 UNK        -0.4285 
     65 CA         34.4410    1.8209   -6.4315 C.3       11 UNK         0.1007 
     66 C          34.3697    2.7155   -5.1592 C.2       11 UNK         0.5703 
     67 N          33.3389    3.5333   -4.9766 N.am      11 UNK        -0.7361 
     68 O          35.2783    2.6812   -4.3325 O.2       11 UNK        -0.4986 
     69 C69        34.4986    0.3067   -6.0964 C.3       12 UNK        -0.0947 
     70 S70        32.9276   -0.3639   -5.4596 S.3       12 UNK        -0.2240 
     71 C71        33.2230   -2.1487   -5.6452 C.3       12 UNK         0.0194 
     72 H72        26.6431   -5.3419   -3.8540 H         1 UNK         0.0906 
     73 H73        25.2961   -5.6699   -2.7617 H         1 UNK         0.0906 
     74 H74        25.0686   -4.5937   -4.1366 H         1 UNK         0.0906 
     75 H75        26.2676   -4.8822   -0.8859 H         1 UNK         0.3140 
     76 H76        26.4677   -3.4778    0.7659 H         1 UNK         0.1085 
     77 H77        28.5124   -2.0507    0.8097 H         1 UNK         0.0836 
     78 H78        28.7607   -3.6978    0.3627 H         1 UNK         0.0836 
     79 H79        31.1267   -3.6438   -1.2157 H         1 UNK         0.0731 
     80 H80        29.6917   -4.5726   -1.5794 H         1 UNK         0.0731 
     81 H81        32.2067   -2.2644   -3.1181 H         1 UNK         0.1312 
     82 H82        31.6564   -3.9088   -7.0462 H         1 UNK         0.1406 
     83 H83        29.1602   -5.1959   -3.8083 H         1 UNK         0.1631 
     84 H84        29.0685   -6.3829   -5.8648 H         1 UNK         0.0717 
     85 H85        30.3950   -6.2240   -6.9835 H         1 UNK         0.0717 
     86 H86        26.4257   -4.7755   -6.5230 H         1 UNK         0.0934 
     87 H87        27.6392   -3.9473   -5.5881 H         1 UNK         0.0934 
     88 H88        26.4808   -2.8885   -8.2202 H         1 UNK         0.0739 
     89 H89        25.8102   -1.1673   -6.1749 H         1 UNK         0.3093 
     90 H90        23.0669   -0.9413   -6.6008 H         1 UNK         0.0818 
     91 H91        21.3629   -1.6552   -4.9285 H         1 UNK         0.0819 
     92 H92        21.6541   -2.9209   -6.1057 H         1 UNK         0.0819 
     93 H93        22.3555   -3.0474   -4.4969 H         1 UNK         0.0819 
     94 H94        23.3228   -0.8043   -3.8309 H         1 UNK         0.3041 
     95 H95        26.0598    1.2996   -3.4282 H         1 UNK         0.0784 
     96 H96        24.5072    2.9464   -4.4468 H         1 UNK         0.0793 
     97 H97        23.1520    2.2524   -3.5732 H         1 UNK         0.0793 
     98 H98        24.4586    3.0465   -2.6947 H         1 UNK         0.0793 
     99 H99        25.5370    0.2283   -1.5920 H         1 UNK         0.3024 
    100 H100       23.9276    0.0155    0.4092 H         1 UNK         0.1171 
    101 H101       21.8986   -2.0884   -0.5202 H         1 UNK         0.0786 
    102 H102       21.5117   -0.5225    0.1800 H         1 UNK         0.0786 
    103 H103       22.3231   -1.7348    1.1549 H         1 UNK         0.0786 
    104 H104       24.2587   -2.7771   -0.4173 H         1 UNK         0.2977 
    105 H105       27.7761   -1.4337   -5.1914 H         1 UNK         0.3127 
    106 H106       30.2085   -0.5708   -6.1724 H         1 UNK         0.0770 
    107 H107       29.7246   -0.5890   -3.7903 H         1 UNK         0.0814 
    108 H108       28.4636    0.6344   -3.9625 H         1 UNK         0.0814 
    109 H109       30.1544    1.0508   -4.2272 H         1 UNK         0.0814 
    110 H110       27.0836    1.1415   -6.4516 H         1 UNK         0.2983 
    111 H111       28.2008    3.5782   -7.5137 H         1 UNK         0.0947 
    112 H112       25.8209    4.0875   -8.0571 H         1 UNK         0.0806 
    113 H113       25.9743    3.4941   -6.4114 H         1 UNK         0.0806 
    114 H114       25.3596    2.4332   -7.6783 H         1 UNK         0.0806 
    115 H115       27.3591    0.4857   -8.9569 H         1 UNK         0.3000 
    116 H116       27.3979    1.4971  -11.7266 H         1 UNK         0.0850 
    117 H117       27.0048   -0.8782  -12.3167 H         1 UNK         0.0810 
    118 H118       25.8280   -0.3415  -11.1290 H         1 UNK         0.0810 
    119 H119       27.1776   -1.3634  -10.6377 H         1 UNK         0.0810 
    120 H120       29.3961   -0.4924   -9.5158 H         1 UNK         0.3040 
    121 H121       31.5931   -0.9042  -11.2908 H         1 UNK         0.0766 
    122 H122       32.7689   -1.6032   -9.1941 H         1 UNK         0.0812 
    123 H123       31.1599   -2.3066   -9.2760 H         1 UNK         0.0812 
    124 H124       31.4673   -0.9289   -8.2237 H         1 UNK         0.0812 
    125 H125       30.7701    1.7469   -9.1351 H         1 UNK         0.3205 
    126 H126       31.5123    3.7730   -8.7583 H         1 UNK         0.0754 
    127 H127       32.8968    5.0122  -10.3673 H         1 UNK         0.0769 
    128 H128       31.7122    4.0573  -11.2437 H         1 UNK         0.0769 
    129 H129       33.3926    3.5282  -11.1655 H         1 UNK         0.0769 
    130 H130       32.5709    1.5456   -7.3843 H         1 UNK         0.2981 
    131 H131       35.4052    2.0626   -6.8827 H         1 UNK         0.0541 
    132 H132       32.5861    3.5613   -5.6448 H         1 UNK         0.3459 
    133 H133       33.3082    4.1130   -4.1531 H         1 UNK         0.3459 
    134 H134       35.2886    0.0976   -5.3729 H         1 UNK         0.0612 
    135 H135       34.7661   -0.2475   -6.9975 H         1 UNK         0.0612 
    136 H136       33.4274   -2.3663   -6.6945 H         1 UNK         0.0624 
    137 H137       34.1200   -2.4229   -5.0884 H         1 UNK         0.0624 
@<TRIPOS>BOND
     1    1    2 1    
     2    1   72 1    
     3    1   73 1    
     4    1   74 1    
     5    2    3 2    
     6    2    4 am   BACKBONE|DICT|INTERRES
     7    4    5 1    
     8    4   75 1    
     9    5    6 1    
    10    5   35 1    
    11    5   76 1    
    12    6    7 1    
    13    6   77 1    
    14    6   78 1    
    15    7    8 1    
    16    8    9 1    
    17    8   79 1    
    18    8   80 1    
    19    9   10 ar   
    20    9   14 ar   
    21   10   11 ar   
    22   10   81 1    
    23   11   12 ar   
    24   11   71 1    
    25   12   13 ar   
    26   12   82 1    
    27   13   14 ar   
    28   13   15 1    
    29   14   83 1    
    30   15   16 1    
    31   15   84 1    
    32   15   85 1    
    33   16   17 1    
    34   17   18 1    
    35   17   86 1    
    36   17   87 1    
    37   18   19 1    
    38   18   37 1    
    39   18   88 1    
    40   19   20 am   BACKBONE|DICT|INTERRES
    41   19   89 1    
    42   20   21 2    
    43   20   22 1    
    44   22   23 1    
    45   22   24 1    
    46   22   90 1    
    47   23   91 1    
    48   23   92 1    
    49   23   93 1    
    50   24   25 am   BACKBONE|DICT|INTERRES
    51   24   94 1    
    52   25   26 2    
    53   25   27 1    
    54   27   28 1    
    55   27   29 1    
    56   27   95 1    
    57   28   96 1    
    58   28   97 1    
    59   28   98 1    
    60   29   30 am   BACKBONE|DICT|INTERRES
    61   29   99 1    
    62   30   31 2    
    63   30   32 1    
    64   32   33 1    
    65   32   34 1    
    66   32  100 1    
    67   33  101 1    
    68   33  102 1    
    69   33  103 1    
    70   34   35 am   BACKBONE|DICT|INTERRES
    71   34  104 1    
    72   35   36 2    
    73   37   38 2    
    74   37   39 am   BACKBONE|DICT|INTERRES
    75   39   40 1    
    76   39  105 1    
    77   40   41 1    
    78   40   42 1    
    79   40  106 1    
    80   41  107 1    
    81   41  108 1    
    82   41  109 1    
    83   42   43 2    
    84   42   44 am   BACKBONE|DICT|INTERRES
    85   44   45 1    
    86   44  110 1    
    87   45   46 1    
    88   45   47 1    
    89   45  111 1    
    90   46  112 1    
    91   46  113 1    
    92   46  114 1    
    93   47   48 2    
    94   47   49 am   BACKBONE|DICT|INTERRES
    95   49   50 1    
    96   49  115 1    
    97   50   51 1    
    98   50   52 1    
    99   50  116 1    
   100   51  117 1    
   101   51  118 1    
   102   51  119 1    
   103   52   53 2    
   104   52   54 am   BACKBONE|DICT|INTERRES
   105   54   55 1    
   106   54  120 1    
   107   55   56 1    
   108   55   57 1    
   109   55  121 1    
   110   56  122 1    
   111   56  123 1    
   112   56  124 1    
   113   57   58 2    
   114   57   59 am   BACKBONE|DICT|INTERRES
   115   59   60 1    
   116   59  125 1    
   117   60   61 1    
   118   60   62 1    
   119   60  126 1    
   120   61  127 1    
   121   61  128 1    
   122   61  129 1    
   123   62   63 2    
   124   62   64 am   BACKBONE|DICT|INTERRES
   125   64   65 1    
   126   64  130 1    
   127   65   66 1    
   128   65   69 1    
   129   65  131 1    
   130   66   67 am   BACKBONE|DICT|INTERRES
   131   66   68 2    
   132   67  132 1    
   133   67  133 1    
   134   69   70 1    
   135   69  134 1    
   136   69  135 1    
   137   70   71 1    
   138   71  136 1    
   139   71  137 1    
@<TRIPOS>SUBSTRUCTURE
     1 UNK         1 GROUP             0       ****    0 ROOT    
