@<TRIPOS>MOLECULE
3R137
137   139    1
SMALL
USER_CHARGES


@<TRIPOS>ATOM
      1 CA         31.6446   -0.0326   -0.0367 C.3       0 UNK        -0.2020 
      2 C          30.4748   -1.0028    0.0509 C.2       0 UNK         0.4855 
      3 O          29.8709   -1.1260    1.1171 O.2       0 UNK        -0.5197 
      4 N          30.1753   -1.6857   -1.0628 N.am      1 UNK        -0.4892 
      5 CA         29.0864   -2.6532   -1.2752 C.3       1 UNK         0.0835 
      6 C6         29.0408   -3.8316   -0.2538 C.3       12 UNK        -0.0855 
      7 S7         30.6359   -4.6767    0.0328 S.3       12 UNK        -0.2931 
      8 C8         30.6371   -5.9621   -1.2611 C.3       12 UNK         0.0378 
      9 C9         30.7733   -5.3632   -2.6538 C.ar      12 UNK        -0.0802 
     10 C10        31.8574   -4.5309   -2.9529 C.ar      12 UNK        -0.0944 
     11 C11        31.9596   -3.9233   -4.2050 C.ar      12 UNK        -0.0787 
     12 C12        30.9998   -4.1937   -5.1800 C.ar      12 UNK        -0.0862 
     13 C13        29.9073   -5.0158   -4.8947 C.ar      12 UNK        -0.0733 
     14 C14        29.8017   -5.6068   -3.6313 C.ar      12 UNK        -0.0832 
     15 C15        28.8251   -5.2296   -5.9429 C.3       12 UNK         0.0240 
     16 S16        27.3711   -4.1780   -5.6260 S.3       12 UNK        -0.2522 
     17 C17        28.0463   -2.4910   -5.8251 C.3       12 UNK        -0.0967 
     18 CA         27.3177   -1.6589   -6.9074 C.3       5 UNK         0.0660 
     19 N          25.8684   -1.6100   -6.6971 N.am      5 UNK        -0.4015 
     20 C          24.9728   -1.1813   -7.5964 C.2       4 UNK         0.4946 
     21 O          25.2685   -0.7993   -8.7276 O.2       4 UNK        -0.5353 
     22 CA         23.5018   -1.1381   -7.1467 C.3       4 UNK         0.0277 
     23 CB         22.8425   -2.5147   -7.3278 C.3       4 UNK        -0.1981 
     24 N          23.3452   -0.6967   -5.7583 N.am      4 UNK        -0.4209 
     25 C          23.6522    0.5317   -5.3157 C.2       3 UNK         0.4942 
     26 O          24.0281    1.4461   -6.0464 O.2       3 UNK        -0.5208 
     27 CA         23.5882    0.7647   -3.7956 C.3       3 UNK         0.0250 
     28 CB         22.1782    1.2103   -3.3775 C.3       3 UNK        -0.1990 
     29 N          23.9942   -0.4012   -3.0010 N.am      3 UNK        -0.4232 
     30 C          25.1869   -1.0080   -3.0856 C.2       2 UNK         0.4993 
     31 O          26.0779   -0.6529   -3.8608 O.2       2 UNK        -0.5286 
     32 CA         25.3699   -2.2635   -2.2156 C.3       2 UNK         0.0209 
     33 CB         24.5875   -3.4455   -2.8149 C.3       2 UNK        -0.1931 
     34 N          26.7713   -2.6657   -2.0633 N.am      2 UNK        -0.4546 
     35 C          27.6983   -1.9798   -1.3802 C.2       1 UNK         0.5154 
     36 O          27.4669   -0.9036   -0.8230 O.2       1 UNK        -0.5181 
     37 C          27.9124   -0.2391   -6.9806 C.2       5 UNK         0.5014 
     38 O          28.7801    0.0193   -7.8183 O.2       5 UNK        -0.5248 
     39 N          27.4173    0.6587   -6.1157 N.am      6 UNK        -0.4434 
     40 CA         27.7447    2.0842   -6.1168 C.3       6 UNK         0.0363 
     41 CB         27.1761    2.7527   -4.8560 C.3       6 UNK        -0.1936 
     42 C          27.2561    2.7924   -7.3917 C.2       6 UNK         0.5081 
     43 O          28.0274    3.5385   -7.9925 O.2       6 UNK        -0.5248 
     44 N          26.0142    2.5123   -7.8156 N.am      7 UNK        -0.4718 
     45 CA         25.4212    3.0157   -9.0612 C.3       7 UNK         0.0273 
     46 CB         23.9318    2.6422   -9.1170 C.3       7 UNK        -0.1935 
     47 C          26.1509    2.5228  -10.3231 C.2       7 UNK         0.5018 
     48 O          26.3114    3.2950  -11.2687 O.2       7 UNK        -0.5186 
     49 N          26.6184    1.2666  -10.2988 N.am      8 UNK        -0.4240 
     50 CA         27.4828    0.6705  -11.3224 C.3       8 UNK         0.0235 
     51 CB         27.4692   -0.8589  -11.1592 C.3       8 UNK        -0.2000 
     52 C          28.9323    1.1976  -11.2980 C.2       8 UNK         0.4941 
     53 O          29.6864    0.8915  -12.2226 O.2       8 UNK        -0.5273 
     54 N          29.2998    1.9571  -10.2535 N.am      9 UNK        -0.4262 
     55 CA         30.6204    2.5301   -9.9774 C.3       9 UNK         0.0264 
     56 CB         31.0018    3.5817  -11.0416 C.3       9 UNK        -0.1955 
     57 C          31.7083    1.4614   -9.7608 C.2       9 UNK         0.5031 
     58 O          32.8551    1.6661  -10.1644 O.2       9 UNK        -0.5390 
     59 N          31.3390    0.3434   -9.1172 N.am      10 UNK        -0.4204 
     60 CA         32.2542   -0.7546   -8.7924 C.3       10 UNK         0.0237 
     61 CB         31.4441   -2.0025   -8.4114 C.3       10 UNK        -0.1985 
     62 C          33.2433   -0.3806   -7.6751 C.2       10 UNK         0.4970 
     63 O          34.4218   -0.7250   -7.7690 O.2       10 UNK        -0.4914 
     64 N          32.7454    0.3294   -6.6570 N.am      11 UNK        -0.4285 
     65 CA         33.5125    0.8461   -5.5133 C.3       11 UNK         0.1007 
     66 C          32.8341    2.0677   -4.8258 C.2       11 UNK         0.5703 
     67 N          31.8727    2.7346   -5.4569 N.am      11 UNK        -0.7361 
     68 O          33.1948    2.4385   -3.7113 O.2       11 UNK        -0.4986 
     69 C69        33.9649   -0.2671   -4.5229 C.3       12 UNK        -0.0947 
     70 S70        32.5916   -1.2802   -3.8781 S.3       12 UNK        -0.2240 
     71 C71        33.0686   -2.9269   -4.4860 C.3       12 UNK         0.0194 
     72 H72        32.4324   -0.3323    0.6539 H         1 UNK         0.0906 
     73 H73        31.3195    0.9722    0.2319 H         1 UNK         0.0906 
     74 H74        32.0709    0.0082   -1.0392 H         1 UNK         0.0906 
     75 H75        30.7355   -1.5139   -1.8868 H         1 UNK         0.3140 
     76 H76        29.2882   -3.0733   -2.2609 H         1 UNK         0.1085 
     77 H77        28.6894   -3.4739    0.7157 H         1 UNK         0.0836 
     78 H78        28.3107   -4.5795   -0.5686 H         1 UNK         0.0836 
     79 H79        31.4756   -6.6375   -1.0861 H         1 UNK         0.0731 
     80 H80        29.7316   -6.5647   -1.1742 H         1 UNK         0.0731 
     81 H81        32.5966   -4.3176   -2.1925 H         1 UNK         0.1312 
     82 H82        31.0843   -3.7309   -6.1514 H         1 UNK         0.1406 
     83 H83        28.9510   -6.2361   -3.4062 H         1 UNK         0.1631 
     84 H84        28.5140   -6.2752   -5.9395 H         1 UNK         0.0717 
     85 H85        29.2071   -5.0271   -6.9449 H         1 UNK         0.0717 
     86 H86        28.0059   -2.0008   -4.8517 H         1 UNK         0.0934 
     87 H87        29.1026   -2.5467   -6.0770 H         1 UNK         0.0934 
     88 H88        27.4934   -2.1361   -7.8738 H         1 UNK         0.0739 
     89 H89        25.5545   -1.8529   -5.7689 H         1 UNK         0.3093 
     90 H90        22.9809   -0.4230   -7.7870 H         1 UNK         0.0818 
     91 H91        22.9303   -2.8545   -8.3609 H         1 UNK         0.0819 
     92 H92        23.3046   -3.2738   -6.6953 H         1 UNK         0.0819 
     93 H93        21.7791   -2.4800   -7.0901 H         1 UNK         0.0819 
     94 H94        23.0280   -1.3827   -5.0894 H         1 UNK         0.3041 
     95 H95        24.2836    1.5734   -3.5620 H         1 UNK         0.0784 
     96 H96        21.8639    2.0892   -3.9426 H         1 UNK         0.0793 
     97 H97        21.4371    0.4290   -3.5515 H         1 UNK         0.0793 
     98 H98        22.1430    1.4785   -2.3214 H         1 UNK         0.0793 
     99 H99        23.3111   -0.7592   -2.3485 H         1 UNK         0.3024 
    100 H100       24.9757   -2.0439   -1.2206 H         1 UNK         0.1171 
    101 H101       23.5218   -3.2239   -2.8851 H         1 UNK         0.0786 
    102 H102       24.9347   -3.6940   -3.8184 H         1 UNK         0.0786 
    103 H103       24.6849   -4.3390   -2.1978 H         1 UNK         0.0786 
    104 H104       27.0385   -3.5225   -2.5257 H         1 UNK         0.2977 
    105 H105       26.7614    0.3340   -5.4095 H         1 UNK         0.3127 
    106 H106       28.8327    2.1722   -6.0833 H         1 UNK         0.0770 
    107 H107       26.0871    2.7193   -4.8346 H         1 UNK         0.0814 
    108 H108       27.4700    3.8019   -4.8073 H         1 UNK         0.0814 
    109 H109       27.5435    2.2693   -3.9504 H         1 UNK         0.0814 
    110 H110       25.4131    1.9399   -7.2263 H         1 UNK         0.2983 
    111 H111       25.4985    4.1050   -9.0447 H         1 UNK         0.0947 
    112 H112       23.7871    1.5617   -9.1110 H         1 UNK         0.0806 
    113 H113       23.4649    3.0299  -10.0234 H         1 UNK         0.0806 
    114 H114       23.3870    3.0572   -8.2688 H         1 UNK         0.0806 
    115 H115       26.3589    0.6677   -9.5197 H         1 UNK         0.3000 
    116 H116       27.0675    0.9137  -12.3026 H         1 UNK         0.0850 
    117 H117       28.0659   -1.3427  -11.9336 H         1 UNK         0.0810 
    118 H118       26.4573   -1.2573  -11.2351 H         1 UNK         0.0810 
    119 H119       27.8776   -1.1632  -10.1951 H         1 UNK         0.0810 
    120 H120       28.6014    2.1501   -9.5450 H         1 UNK         0.3040 
    121 H121       30.5258    3.0534   -9.0252 H         1 UNK         0.0766 
    122 H122       31.1809    3.1267  -12.0161 H         1 UNK         0.0812 
    123 H123       31.9122    4.1115  -10.7590 H         1 UNK         0.0812 
    124 H124       30.2167    4.3288  -11.1584 H         1 UNK         0.0812 
    125 H125       30.3750    0.2522   -8.7987 H         1 UNK         0.3205 
    126 H126       32.8349   -0.9891   -9.6872 H         1 UNK         0.0754 
    127 H127       32.1034   -2.8470   -8.2070 H         1 UNK         0.0769 
    128 H128       30.7722   -2.3010   -9.2165 H         1 UNK         0.0769 
    129 H129       30.8416   -1.8280   -7.5208 H         1 UNK         0.0769 
    130 H130       31.7569    0.5295   -6.6398 H         1 UNK         0.2981 
    131 H131       34.4255    1.2753   -5.9294 H         1 UNK         0.0541 
    132 H132       31.4574    3.5272   -4.9935 H         1 UNK         0.3459 
    133 H133       31.6201    2.5233   -6.4062 H         1 UNK         0.3459 
    134 H134       34.5043    0.1594   -3.6757 H         1 UNK         0.0612 
    135 H135       34.6880   -0.9169   -5.0171 H         1 UNK         0.0612 
    136 H136       33.9938   -3.2426   -4.0015 H         1 UNK         0.0624 
    137 H137       33.2732   -2.8773   -5.5569 H         1 UNK         0.0624 
@<TRIPOS>BOND
     1    1    2 1    
     2    1   72 1    
     3    1   73 1    
     4    1   74 1    
     5    2    3 2    
     6    2    4 am   BACKBONE|DICT|INTERRES
     7    4    5 1    
     8    4   75 1    
     9    5    6 1    
    10    5   35 1    
    11    5   76 1    
    12    6    7 1    
    13    6   77 1    
    14    6   78 1    
    15    7    8 1    
    16    8    9 1    
    17    8   79 1    
    18    8   80 1    
    19    9   10 ar   
    20    9   14 ar   
    21   10   11 ar   
    22   10   81 1    
    23   11   12 ar   
    24   11   71 1    
    25   12   13 ar   
    26   12   82 1    
    27   13   14 ar   
    28   13   15 1    
    29   14   83 1    
    30   15   16 1    
    31   15   84 1    
    32   15   85 1    
    33   16   17 1    
    34   17   18 1    
    35   17   86 1    
    36   17   87 1    
    37   18   19 1    
    38   18   37 1    
    39   18   88 1    
    40   19   20 am   BACKBONE|DICT|INTERRES
    41   19   89 1    
    42   20   21 2    
    43   20   22 1    
    44   22   23 1    
    45   22   24 1    
    46   22   90 1    
    47   23   91 1    
    48   23   92 1    
    49   23   93 1    
    50   24   25 am   BACKBONE|DICT|INTERRES
    51   24   94 1    
    52   25   26 2    
    53   25   27 1    
    54   27   28 1    
    55   27   29 1    
    56   27   95 1    
    57   28   96 1    
    58   28   97 1    
    59   28   98 1    
    60   29   30 am   BACKBONE|DICT|INTERRES
    61   29   99 1    
    62   30   31 2    
    63   30   32 1    
    64   32   33 1    
    65   32   34 1    
    66   32  100 1    
    67   33  101 1    
    68   33  102 1    
    69   33  103 1    
    70   34   35 am   BACKBONE|DICT|INTERRES
    71   34  104 1    
    72   35   36 2    
    73   37   38 2    
    74   37   39 am   BACKBONE|DICT|INTERRES
    75   39   40 1    
    76   39  105 1    
    77   40   41 1    
    78   40   42 1    
    79   40  106 1    
    80   41  107 1    
    81   41  108 1    
    82   41  109 1    
    83   42   43 2    
    84   42   44 am   BACKBONE|DICT|INTERRES
    85   44   45 1    
    86   44  110 1    
    87   45   46 1    
    88   45   47 1    
    89   45  111 1    
    90   46  112 1    
    91   46  113 1    
    92   46  114 1    
    93   47   48 2    
    94   47   49 am   BACKBONE|DICT|INTERRES
    95   49   50 1    
    96   49  115 1    
    97   50   51 1    
    98   50   52 1    
    99   50  116 1    
   100   51  117 1    
   101   51  118 1    
   102   51  119 1    
   103   52   53 2    
   104   52   54 am   BACKBONE|DICT|INTERRES
   105   54   55 1    
   106   54  120 1    
   107   55   56 1    
   108   55   57 1    
   109   55  121 1    
   110   56  122 1    
   111   56  123 1    
   112   56  124 1    
   113   57   58 2    
   114   57   59 am   BACKBONE|DICT|INTERRES
   115   59   60 1    
   116   59  125 1    
   117   60   61 1    
   118   60   62 1    
   119   60  126 1    
   120   61  127 1    
   121   61  128 1    
   122   61  129 1    
   123   62   63 2    
   124   62   64 am   BACKBONE|DICT|INTERRES
   125   64   65 1    
   126   64  130 1    
   127   65   66 1    
   128   65   69 1    
   129   65  131 1    
   130   66   67 am   BACKBONE|DICT|INTERRES
   131   66   68 2    
   132   67  132 1    
   133   67  133 1    
   134   69   70 1    
   135   69  134 1    
   136   69  135 1    
   137   70   71 1    
   138   71  136 1    
   139   71  137 1    
@<TRIPOS>SUBSTRUCTURE
     1 UNK         1 GROUP             0       ****    0 ROOT    
