@<TRIPOS>MOLECULE
3R137
137   139    1
SMALL
USER_CHARGES


@<TRIPOS>ATOM
      1 CA         28.8530   -4.4865    0.9502 C.3       0 UNK        -0.2020 
      2 C          28.3024   -3.0699    1.0168 C.2       0 UNK         0.4855 
      3 O          27.6136   -2.7236    1.9766 O.2       0 UNK        -0.5197 
      4 N          28.5996   -2.2483    0.0021 N.am      1 UNK        -0.4892 
      5 CA         28.1343   -0.8599   -0.1221 C.3       1 UNK         0.0835 
      6 C6         29.0611   -0.0200   -1.0408 C.3       12 UNK        -0.0855 
      7 S7         29.2571   -0.6967   -2.7262 S.3       12 UNK        -0.2931 
      8 C8         30.8695   -1.5407   -2.5913 C.3       12 UNK         0.0378 
      9 C9         31.1365   -2.4779   -3.7633 C.ar      12 UNK        -0.0802 
     10 C10        32.3962   -2.5027   -4.3696 C.ar      12 UNK        -0.0944 
     11 C11        32.6580   -3.3716   -5.4341 C.ar      12 UNK        -0.0787 
     12 C12        31.6394   -4.2072   -5.9069 C.ar      12 UNK        -0.0862 
     13 C13        30.3733   -4.1901   -5.3102 C.ar      12 UNK        -0.0733 
     14 C14        30.1392   -3.3428   -4.2259 C.ar      12 UNK        -0.0832 
     15 C15        29.2593   -5.0911   -5.8245 C.3       12 UNK         0.0240 
     16 S16        28.2321   -4.2552   -7.0758 S.3       12 UNK        -0.2522 
     17 C17        26.9992   -3.3645   -6.0616 C.3       12 UNK        -0.0967 
     18 CA         26.1721   -2.3657   -6.9156 C.3       5 UNK         0.0660 
     19 N          24.7951   -2.2207   -6.4440 N.am      5 UNK        -0.4015 
     20 C          23.7313   -2.1030   -7.2529 C.2       4 UNK         0.4946 
     21 O          23.7820   -2.2147   -8.4786 O.2       4 UNK        -0.5353 
     22 CA         22.3705   -1.8014   -6.5987 C.3       4 UNK         0.0277 
     23 CB         21.5947   -3.1050   -6.3485 C.3       4 UNK        -0.1981 
     24 N          22.4677   -1.0499   -5.3463 N.am      4 UNK        -0.4209 
     25 C          22.9547    0.1936   -5.2284 C.2       3 UNK         0.4942 
     26 O          23.3593    0.8710   -6.1738 O.2       3 UNK        -0.5208 
     27 CA         23.0474    0.7559   -3.7999 C.3       3 UNK         0.0250 
     28 CB         21.7273    1.4398   -3.4094 C.3       3 UNK        -0.1990 
     29 N          23.4096   -0.2301   -2.7716 N.am      3 UNK        -0.4232 
     30 C          24.4789   -1.0399   -2.7954 C.2       2 UNK         0.4993 
     31 O          25.2512   -1.1449   -3.7520 O.2       2 UNK        -0.5286 
     32 CA         24.7018   -1.9230   -1.5606 C.3       2 UNK         0.0209 
     33 CB         24.3662   -3.3881   -1.8849 C.3       2 UNK        -0.1931 
     34 N          26.0866   -1.8388   -1.0967 N.am      2 UNK        -0.4546 
     35 C          26.6479   -0.7565   -0.5361 C.2       1 UNK         0.5154 
     36 O          26.0338    0.2893   -0.3165 O.2       1 UNK        -0.5181 
     37 C          26.8341   -0.9798   -6.9978 C.2       5 UNK         0.5014 
     38 O          27.4008   -0.6524   -8.0396 O.2       5 UNK        -0.5248 
     39 N          26.7196   -0.1750   -5.9270 N.am      6 UNK        -0.4434 
     40 CA         27.3607    1.1370   -5.7447 C.3       6 UNK         0.0363 
     41 CB         26.9192    1.7423   -4.4033 C.3       6 UNK        -0.1936 
     42 C          27.1197    2.1545   -6.8743 C.2       6 UNK         0.5081 
     43 O          27.9740    3.0105   -7.1030 O.2       6 UNK        -0.5248 
     44 N          25.9818    2.0369   -7.5725 N.am      7 UNK        -0.4718 
     45 CA         25.6432    2.8183   -8.7646 C.3       7 UNK         0.0273 
     46 CB         24.1932    2.5054   -9.1674 C.3       7 UNK        -0.1935 
     47 C          26.5917    2.5948   -9.9613 C.2       7 UNK         0.5018 
     48 O          26.7082    3.4927  -10.7968 O.2       7 UNK        -0.5186 
     49 N          27.2380    1.4223  -10.0320 N.am      8 UNK        -0.4240 
     50 CA         28.1829    1.0436  -11.0873 C.3       8 UNK         0.0235 
     51 CB         27.6318   -0.1844  -11.8307 C.3       8 UNK        -0.2000 
     52 C          29.5878    0.7419  -10.5398 C.2       8 UNK         0.4941 
     53 O          30.5663    0.9375  -11.2632 O.2       8 UNK        -0.5273 
     54 N          29.6770    0.2511   -9.2968 N.am      9 UNK        -0.4262 
     55 CA         30.9028   -0.1723   -8.6236 C.3       9 UNK         0.0264 
     56 CB         30.5343   -1.0213   -7.3960 C.3       9 UNK        -0.1955 
     57 C          31.8262    0.9988   -8.2495 C.2       9 UNK         0.5031 
     58 O          31.9164    1.3724   -7.0780 O.2       9 UNK        -0.5390 
     59 N          32.5592    1.5122   -9.2463 N.am      10 UNK        -0.4204 
     60 CA         33.6675    2.4643   -9.0840 C.3       10 UNK         0.0237 
     61 CB         34.1793    2.8839  -10.4714 C.3       10 UNK        -0.1985 
     62 C          34.8260    1.9224   -8.2184 C.2       10 UNK         0.4970 
     63 O          35.5933    2.7130   -7.6686 O.2       10 UNK        -0.4914 
     64 N          34.9067    0.5916   -8.0941 N.am      11 UNK        -0.4285 
     65 CA         35.7313   -0.1485   -7.1316 C.3       11 UNK         0.1007 
     66 C          35.3663    0.0801   -5.6327 C.2       11 UNK         0.5703 
     67 N          34.2093    0.6410   -5.2963 N.am      11 UNK        -0.7361 
     68 O          36.1602   -0.2535   -4.7565 O.2       11 UNK        -0.4986 
     69 C69        35.7678   -1.6599   -7.4905 C.3       12 UNK        -0.0947 
     70 S70        34.1068   -2.4234   -7.5945 S.3       12 UNK        -0.2240 
     71 C71        34.0438   -3.4057   -6.0633 C.3       12 UNK         0.0194 
     72 H72        28.0356   -5.2072    0.9537 H         1 UNK         0.0906 
     73 H73        29.4478   -4.6528    0.0521 H         1 UNK         0.0906 
     74 H74        29.4847   -4.6841    1.8158 H         1 UNK         0.0906 
     75 H75        29.1605   -2.5836   -0.7674 H         1 UNK         0.3140 
     76 H76        28.1883   -0.4098    0.8722 H         1 UNK         0.1085 
     77 H77        30.0449    0.0742   -0.5783 H         1 UNK         0.0836 
     78 H78        28.6868    1.0022   -1.1257 H         1 UNK         0.0836 
     79 H79        31.6504   -0.7818   -2.5201 H         1 UNK         0.0731 
     80 H80        30.9135   -2.1205   -1.6693 H         1 UNK         0.0731 
     81 H81        33.1786   -1.8478   -4.0109 H         1 UNK         0.1312 
     82 H82        31.8326   -4.8669   -6.7418 H         1 UNK         0.1406 
     83 H83        29.1699   -3.3445   -3.7483 H         1 UNK         0.1631 
     84 H84        28.6328   -5.4367   -5.0008 H         1 UNK         0.0717 
     85 H85        29.6905   -5.9876   -6.2724 H         1 UNK         0.0717 
     86 H86        26.3429   -4.1207   -5.6275 H         1 UNK         0.0934 
     87 H87        27.4803   -2.8694   -5.2171 H         1 UNK         0.0934 
     88 H88        26.1383   -2.7562   -7.9353 H         1 UNK         0.0739 
     89 H89        24.6795   -2.0496   -5.4509 H         1 UNK         0.3093 
     90 H90        21.8001   -1.1925   -7.3036 H         1 UNK         0.0818 
     91 H91        20.5914   -2.9050   -5.9719 H         1 UNK         0.0819 
     92 H92        21.4832   -3.6755   -7.2718 H         1 UNK         0.0819 
     93 H93        22.1036   -3.7473   -5.6286 H         1 UNK         0.0819 
     94 H94        22.1613   -1.5203   -4.5072 H         1 UNK         0.3041 
     95 H95        23.8260    1.5177   -3.8001 H         1 UNK         0.0784 
     96 H96        21.4439    2.1916   -4.1477 H         1 UNK         0.0793 
     97 H97        20.9057    0.7258   -3.3397 H         1 UNK         0.0793 
     98 H98        21.8123    1.9499   -2.4496 H         1 UNK         0.0793 
     99 H99        22.8289   -0.2328   -1.9452 H         1 UNK         0.3024 
    100 H100       24.0518   -1.5848   -0.7505 H         1 UNK         0.1171 
    101 H101       23.3307   -3.4893   -2.2124 H         1 UNK         0.0786 
    102 H102       24.4914   -4.0267   -1.0102 H         1 UNK         0.0786 
    103 H103       24.9998   -3.7818   -2.6811 H         1 UNK         0.0786 
    104 H104       26.6745   -2.6413   -1.2625 H         1 UNK         0.2977 
    105 H105       26.2120   -0.5273   -5.1155 H         1 UNK         0.3127 
    106 H106       28.4352    0.9579   -5.6912 H         1 UNK         0.0770 
    107 H107       25.8823    2.0710   -4.4384 H         1 UNK         0.0814 
    108 H108       27.5252    2.6144   -4.1553 H         1 UNK         0.0814 
    109 H109       27.0204    1.0338   -3.5818 H         1 UNK         0.0814 
    110 H110       25.3062    1.3432   -7.2735 H         1 UNK         0.2983 
    111 H111       25.7060    3.8749   -8.4960 H         1 UNK         0.0947 
    112 H112       23.8954    3.0839  -10.0431 H         1 UNK         0.0806 
    113 H113       23.4970    2.7518   -8.3652 H         1 UNK         0.0806 
    114 H114       24.0619    1.4502   -9.4110 H         1 UNK         0.0806 
    115 H115       27.0951    0.7454   -9.2867 H         1 UNK         0.3000 
    116 H116       28.2937    1.8555  -11.8092 H         1 UNK         0.0850 
    117 H117       28.3104   -0.4989  -12.6249 H         1 UNK         0.0810 
    118 H118       26.6695    0.0336  -12.2942 H         1 UNK         0.0810 
    119 H119       27.4956   -1.0338  -11.1597 H         1 UNK         0.0810 
    120 H120       28.8158    0.0543   -8.7899 H         1 UNK         0.3040 
    121 H121       31.4570   -0.8196   -9.3067 H         1 UNK         0.0766 
    122 H122       30.0005   -1.9263   -7.6828 H         1 UNK         0.0812 
    123 H123       29.9141   -0.4732   -6.6890 H         1 UNK         0.0812 
    124 H124       31.4276   -1.3308   -6.8567 H         1 UNK         0.0812 
    125 H125       32.3328    1.2143  -10.1901 H         1 UNK         0.3205 
    126 H126       33.2717    3.3477   -8.5789 H         1 UNK         0.0754 
    127 H127       34.9828    3.6169  -10.3864 H         1 UNK         0.0769 
    128 H128       33.3872    3.3413  -11.0649 H         1 UNK         0.0769 
    129 H129       34.5707    2.0336  -11.0313 H         1 UNK         0.0769 
    130 H130       34.2332    0.0297   -8.5915 H         1 UNK         0.2981 
    131 H131       36.7481    0.2320   -7.2429 H         1 UNK         0.0541 
    132 H132       33.5231    0.9018   -5.9971 H         1 UNK         0.3459 
    133 H133       34.0060    0.7928   -4.3224 H         1 UNK         0.3459 
    134 H134       36.3987   -2.2144   -6.7937 H         1 UNK         0.0612 
    135 H135       36.2417   -1.7840   -8.4652 H         1 UNK         0.0612 
    136 H136       34.3286   -4.4345   -6.2873 H         1 UNK         0.0624 
    137 H137       34.7786   -3.0343   -5.3477 H         1 UNK         0.0624 
@<TRIPOS>BOND
     1    1    2 1    
     2    1   72 1    
     3    1   73 1    
     4    1   74 1    
     5    2    3 2    
     6    2    4 am   BACKBONE|DICT|INTERRES
     7    4    5 1    
     8    4   75 1    
     9    5    6 1    
    10    5   35 1    
    11    5   76 1    
    12    6    7 1    
    13    6   77 1    
    14    6   78 1    
    15    7    8 1    
    16    8    9 1    
    17    8   79 1    
    18    8   80 1    
    19    9   10 ar   
    20    9   14 ar   
    21   10   11 ar   
    22   10   81 1    
    23   11   12 ar   
    24   11   71 1    
    25   12   13 ar   
    26   12   82 1    
    27   13   14 ar   
    28   13   15 1    
    29   14   83 1    
    30   15   16 1    
    31   15   84 1    
    32   15   85 1    
    33   16   17 1    
    34   17   18 1    
    35   17   86 1    
    36   17   87 1    
    37   18   19 1    
    38   18   37 1    
    39   18   88 1    
    40   19   20 am   BACKBONE|DICT|INTERRES
    41   19   89 1    
    42   20   21 2    
    43   20   22 1    
    44   22   23 1    
    45   22   24 1    
    46   22   90 1    
    47   23   91 1    
    48   23   92 1    
    49   23   93 1    
    50   24   25 am   BACKBONE|DICT|INTERRES
    51   24   94 1    
    52   25   26 2    
    53   25   27 1    
    54   27   28 1    
    55   27   29 1    
    56   27   95 1    
    57   28   96 1    
    58   28   97 1    
    59   28   98 1    
    60   29   30 am   BACKBONE|DICT|INTERRES
    61   29   99 1    
    62   30   31 2    
    63   30   32 1    
    64   32   33 1    
    65   32   34 1    
    66   32  100 1    
    67   33  101 1    
    68   33  102 1    
    69   33  103 1    
    70   34   35 am   BACKBONE|DICT|INTERRES
    71   34  104 1    
    72   35   36 2    
    73   37   38 2    
    74   37   39 am   BACKBONE|DICT|INTERRES
    75   39   40 1    
    76   39  105 1    
    77   40   41 1    
    78   40   42 1    
    79   40  106 1    
    80   41  107 1    
    81   41  108 1    
    82   41  109 1    
    83   42   43 2    
    84   42   44 am   BACKBONE|DICT|INTERRES
    85   44   45 1    
    86   44  110 1    
    87   45   46 1    
    88   45   47 1    
    89   45  111 1    
    90   46  112 1    
    91   46  113 1    
    92   46  114 1    
    93   47   48 2    
    94   47   49 am   BACKBONE|DICT|INTERRES
    95   49   50 1    
    96   49  115 1    
    97   50   51 1    
    98   50   52 1    
    99   50  116 1    
   100   51  117 1    
   101   51  118 1    
   102   51  119 1    
   103   52   53 2    
   104   52   54 am   BACKBONE|DICT|INTERRES
   105   54   55 1    
   106   54  120 1    
   107   55   56 1    
   108   55   57 1    
   109   55  121 1    
   110   56  122 1    
   111   56  123 1    
   112   56  124 1    
   113   57   58 2    
   114   57   59 am   BACKBONE|DICT|INTERRES
   115   59   60 1    
   116   59  125 1    
   117   60   61 1    
   118   60   62 1    
   119   60  126 1    
   120   61  127 1    
   121   61  128 1    
   122   61  129 1    
   123   62   63 2    
   124   62   64 am   BACKBONE|DICT|INTERRES
   125   64   65 1    
   126   64  130 1    
   127   65   66 1    
   128   65   69 1    
   129   65  131 1    
   130   66   67 am   BACKBONE|DICT|INTERRES
   131   66   68 2    
   132   67  132 1    
   133   67  133 1    
   134   69   70 1    
   135   69  134 1    
   136   69  135 1    
   137   70   71 1    
   138   71  136 1    
   139   71  137 1    
@<TRIPOS>SUBSTRUCTURE
     1 UNK         1 GROUP             0       ****    0 ROOT    
