@<TRIPOS>MOLECULE
3R137
137   139    1
SMALL
USER_CHARGES


@<TRIPOS>ATOM
      1 CA         24.1982   -6.3013   -4.2431 C.3       0 UNK        -0.2020 
      2 C          24.6539   -5.4632   -3.0594 C.2       0 UNK         0.4855 
      3 O          23.8294   -4.8290   -2.4011 O.2       0 UNK        -0.5197 
      4 N          25.9678   -5.4607   -2.8003 N.am      1 UNK        -0.4892 
      5 CA         26.6730   -4.7600   -1.7183 C.3       1 UNK         0.0835 
      6 C6         28.1845   -5.0984   -1.7982 C.3       12 UNK        -0.0855 
      7 S7         29.1250   -4.6638   -0.2982 S.3       12 UNK        -0.2931 
      8 C8         30.7935   -4.3953   -0.9945 C.3       12 UNK         0.0378 
      9 C9         30.8447   -3.1863   -1.9205 C.ar      12 UNK        -0.0802 
     10 C10        31.1715   -3.3294   -3.2731 C.ar      12 UNK        -0.0944 
     11 C11        31.1682   -2.2191   -4.1258 C.ar      12 UNK        -0.0787 
     12 C12        30.8337   -0.9594   -3.6185 C.ar      12 UNK        -0.0862 
     13 C13        30.5155   -0.8065   -2.2659 C.ar      12 UNK        -0.0733 
     14 C14        30.5411   -1.9190   -1.4218 C.ar      12 UNK        -0.0832 
     15 C15        30.1073    0.5425   -1.7003 C.3       12 UNK         0.0240 
     16 S16        28.3517    0.5109   -1.2231 S.3       12 UNK        -0.2522 
     17 C17        27.5700    1.6409   -2.4137 C.3       12 UNK        -0.0967 
     18 CA         27.7504    1.3043   -3.9183 C.3       5 UNK         0.0660 
     19 N          27.4316   -0.0839   -4.2883 N.am      5 UNK        -0.4015 
     20 C          27.6289   -0.5927   -5.5182 C.2       4 UNK         0.4946 
     21 O          28.2225    0.0093   -6.4118 O.2       4 UNK        -0.5353 
     22 CA         26.9980   -1.9559   -5.8517 C.3       4 UNK         0.0277 
     23 CB         27.9598   -3.1204   -5.5709 C.3       4 UNK        -0.1981 
     24 N          25.7366   -2.1504   -5.1379 N.am      4 UNK        -0.4209 
     25 C          24.5834   -1.5623   -5.4902 C.2       3 UNK         0.4942 
     26 O          24.4583   -0.8734   -6.5018 O.2       3 UNK        -0.5208 
     27 CA         23.3791   -1.7253   -4.5443 C.3       3 UNK         0.0250 
     28 CB         22.4700   -2.8722   -5.0094 C.3       3 UNK        -0.1990 
     29 N          23.7779   -1.9343   -3.1494 N.am      3 UNK        -0.4232 
     30 C          24.3432   -0.9816   -2.3924 C.2       2 UNK         0.4993 
     31 O          24.5012    0.1785   -2.7751 O.2       2 UNK        -0.5286 
     32 CA         24.8831   -1.4043   -1.0120 C.3       2 UNK         0.0209 
     33 CB         23.7998   -1.2362    0.0643 C.3       2 UNK        -0.1931 
     34 N          25.4005   -2.7791   -0.9774 N.am      2 UNK        -0.4546 
     35 C          26.3931   -3.2391   -1.7535 C.2       1 UNK         0.5154 
     36 O          27.0052   -2.5231   -2.5448 O.2       1 UNK        -0.5181 
     37 C          26.9301    2.3115   -4.7487 C.2       5 UNK         0.5014 
     38 O          27.4865    3.3092   -5.2077 O.2       5 UNK        -0.5248 
     39 N          25.6292    2.0289   -4.9247 N.am      6 UNK        -0.4434 
     40 CA         24.7117    2.8243   -5.7444 C.3       6 UNK         0.0363 
     41 CB         23.2665    2.3537   -5.5166 C.3       6 UNK        -0.1936 
     42 C          25.0707    2.8014   -7.2414 C.2       6 UNK         0.5081 
     43 O          24.9732    3.8396   -7.8963 O.2       6 UNK        -0.5248 
     44 N          25.4936    1.6350   -7.7522 N.am      7 UNK        -0.4718 
     45 CA         26.0073    1.4663   -9.1159 C.3       7 UNK         0.0273 
     46 CB         26.1288   -0.0299   -9.4445 C.3       7 UNK        -0.1935 
     47 C          27.3532    2.1810   -9.3363 C.2       7 UNK         0.5018 
     48 O          27.5471    2.7796  -10.3954 O.2       7 UNK        -0.5186 
     49 N          28.2337    2.1220   -8.3256 N.am      8 UNK        -0.4240 
     50 CA         29.5599    2.7386   -8.2555 C.3       8 UNK         0.0235 
     51 CB         29.4495    4.2810   -8.2267 C.3       8 UNK        -0.2000 
     52 C          30.4986    2.1775   -9.3394 C.2       8 UNK         0.4941 
     53 O          30.7302    0.9671   -9.3524 O.2       8 UNK        -0.5273 
     54 N          31.0493    3.0537  -10.1960 N.am      9 UNK        -0.4262 
     55 CA         31.9273    2.7529  -11.3387 C.3       9 UNK         0.0264 
     56 CB         31.1140    2.0792  -12.4647 C.3       9 UNK        -0.1955 
     57 C          33.1867    1.9449  -10.9607 C.2       9 UNK         0.5031 
     58 O          33.6132    1.0770  -11.7256 O.2       9 UNK        -0.5390 
     59 N          33.7267    2.2104   -9.7599 N.am      10 UNK        -0.4204 
     60 CA         34.8398    1.5011   -9.1110 C.3       10 UNK         0.0237 
     61 CB         36.1713    1.8235   -9.8232 C.3       10 UNK        -0.1985 
     62 C          34.5994   -0.0183   -8.9564 C.2       10 UNK         0.4970 
     63 O          35.5583   -0.7914   -8.9925 O.2       10 UNK        -0.4914 
     64 N          33.3256   -0.4119   -8.8083 N.am      11 UNK        -0.4285 
     65 CA         32.8314   -1.7978   -8.7908 C.3       11 UNK         0.1007 
     66 C          32.9079   -2.5223  -10.1705 C.2       11 UNK         0.5703 
     67 N          33.1567   -1.8353  -11.2806 N.am      11 UNK        -0.7361 
     68 O          32.7052   -3.7321  -10.2468 O.2       11 UNK        -0.4986 
     69 C69        33.4044   -2.6631   -7.6280 C.3       12 UNK        -0.0947 
     70 S70        33.2026   -1.9174   -5.9746 S.3       12 UNK        -0.2240 
     71 C71        31.4879   -2.3889   -5.6027 C.3       12 UNK         0.0194 
     72 H72        24.4667   -5.8150   -5.1806 H         1 UNK         0.0906 
     73 H73        24.6590   -7.2887   -4.2214 H         1 UNK         0.0906 
     74 H74        23.1168   -6.4358   -4.2254 H         1 UNK         0.0906 
     75 H75        26.5669   -5.9991   -3.4099 H         1 UNK         0.3140 
     76 H76        26.2874   -5.1545   -0.7758 H         1 UNK         0.1085 
     77 H77        28.3170   -6.1721   -1.9420 H         1 UNK         0.0836 
     78 H78        28.6333   -4.6282   -2.6743 H         1 UNK         0.0836 
     79 H79        31.1138   -5.2997   -1.5143 H         1 UNK         0.0731 
     80 H80        31.4985   -4.2448   -0.1758 H         1 UNK         0.0731 
     81 H81        31.4116   -4.3072   -3.6676 H         1 UNK         0.1312 
     82 H82        30.8101   -0.1053   -4.2813 H         1 UNK         0.1406 
     83 H83        30.2769   -1.8050   -0.3790 H         1 UNK         0.1631 
     84 H84        30.3079    1.3500   -2.4049 H         1 UNK         0.0717 
     85 H85        30.7081    0.7557   -0.8151 H         1 UNK         0.0717 
     86 H86        26.5117    1.6818   -2.1517 H         1 UNK         0.0934 
     87 H87        27.9561    2.6422   -2.2112 H         1 UNK         0.0934 
     88 H88        28.7981    1.4630   -4.1785 H         1 UNK         0.0739 
     89 H89        27.0300   -0.6754   -3.5692 H         1 UNK         0.3093 
     90 H90        26.7809   -1.9700   -6.9215 H         1 UNK         0.0818 
     91 H91        28.7757   -3.1192   -6.2928 H         1 UNK         0.0819 
     92 H92        28.4066   -3.0563   -4.5796 H         1 UNK         0.0819 
     93 H93        27.4595   -4.0850   -5.6548 H         1 UNK         0.0819 
     94 H94        25.8004   -2.6231   -4.2449 H         1 UNK         0.3041 
     95 H95        22.7992   -0.8012   -4.5910 H         1 UNK         0.0784 
     96 H96        22.0977   -2.6864   -6.0179 H         1 UNK         0.0793 
     97 H97        22.9967   -3.8246   -5.0302 H         1 UNK         0.0793 
     98 H98        21.6023   -2.9816   -4.3586 H         1 UNK         0.0793 
     99 H99        23.6962   -2.8765   -2.7757 H         1 UNK         0.3024 
    100 H100       25.7112   -0.7351   -0.7722 H         1 UNK         0.1171 
    101 H101       24.1951   -1.4375    1.0601 H         1 UNK         0.0786 
    102 H102       23.4129   -0.2160    0.0715 H         1 UNK         0.0786 
    103 H103       22.9547   -1.9049   -0.1049 H         1 UNK         0.0786 
    104 H104       24.8914   -3.4392   -0.4065 H         1 UNK         0.2977 
    105 H105       25.2386    1.2277   -4.4393 H         1 UNK         0.3127 
    106 H106       24.7850    3.8598   -5.4050 H         1 UNK         0.0770 
    107 H107       23.1106    1.3346   -5.8691 H         1 UNK         0.0814 
    108 H108       22.5629    2.9919   -6.0526 H         1 UNK         0.0814 
    109 H109       22.9976    2.3886   -4.4606 H         1 UNK         0.0814 
    110 H110       25.4563    0.8062   -7.1682 H         1 UNK         0.2983 
    111 H111       25.2813    1.9074   -9.8024 H         1 UNK         0.0947 
    112 H112       26.4324   -0.1755  -10.4820 H         1 UNK         0.0806 
    113 H113       25.1788   -0.5470   -9.3074 H         1 UNK         0.0806 
    114 H114       26.8731   -0.5210   -8.8177 H         1 UNK         0.0806 
    115 H115       28.0156    1.5021   -7.5484 H         1 UNK         0.3000 
    116 H116       29.9822    2.4233   -7.3001 H         1 UNK         0.0850 
    117 H117       30.4224    4.7464   -8.0639 H         1 UNK         0.0810 
    118 H118       28.8051    4.6047   -7.4088 H         1 UNK         0.0810 
    119 H119       29.0313    4.6863   -9.1487 H         1 UNK         0.0810 
    120 H120       30.7982    4.0266  -10.0855 H         1 UNK         0.3040 
    121 H121       32.2855    3.7117  -11.7163 H         1 UNK         0.0766 
    122 H122       30.7695    1.0863  -12.1727 H         1 UNK         0.0812 
    123 H123       31.7130    1.9639  -13.3689 H         1 UNK         0.0812 
    124 H124       30.2382    2.6713  -12.7307 H         1 UNK         0.0812 
    125 H125       33.2905    2.9360   -9.2079 H         1 UNK         0.3205 
    126 H126       34.9046    1.8963   -8.0962 H         1 UNK         0.0754 
    127 H127       37.0205    1.4150   -9.2739 H         1 UNK         0.0769 
    128 H128       36.3281    2.8991   -9.9034 H         1 UNK         0.0769 
    129 H129       36.2023    1.4041  -10.8295 H         1 UNK         0.0769 
    130 H130       32.5907    0.2857   -8.8530 H         1 UNK         0.2981 
    131 H131       31.7610   -1.6997   -8.6084 H         1 UNK         0.0541 
    132 H132       33.3179   -0.8335  -11.2600 H         1 UNK         0.3459 
    133 H133       33.1892   -2.3254  -12.1599 H         1 UNK         0.3459 
    134 H134       34.4673   -2.8523   -7.7822 H         1 UNK         0.0612 
    135 H135       32.9334   -3.6473   -7.6145 H         1 UNK         0.0612 
    136 H136       30.8139   -1.7743   -6.2017 H         1 UNK         0.0624 
    137 H137       31.3166   -3.4235   -5.9036 H         1 UNK         0.0624 
@<TRIPOS>BOND
     1    1    2 1    
     2    1   72 1    
     3    1   73 1    
     4    1   74 1    
     5    2    3 2    
     6    2    4 am   BACKBONE|DICT|INTERRES
     7    4    5 1    
     8    4   75 1    
     9    5    6 1    
    10    5   35 1    
    11    5   76 1    
    12    6    7 1    
    13    6   77 1    
    14    6   78 1    
    15    7    8 1    
    16    8    9 1    
    17    8   79 1    
    18    8   80 1    
    19    9   10 ar   
    20    9   14 ar   
    21   10   11 ar   
    22   10   81 1    
    23   11   12 ar   
    24   11   71 1    
    25   12   13 ar   
    26   12   82 1    
    27   13   14 ar   
    28   13   15 1    
    29   14   83 1    
    30   15   16 1    
    31   15   84 1    
    32   15   85 1    
    33   16   17 1    
    34   17   18 1    
    35   17   86 1    
    36   17   87 1    
    37   18   19 1    
    38   18   37 1    
    39   18   88 1    
    40   19   20 am   BACKBONE|DICT|INTERRES
    41   19   89 1    
    42   20   21 2    
    43   20   22 1    
    44   22   23 1    
    45   22   24 1    
    46   22   90 1    
    47   23   91 1    
    48   23   92 1    
    49   23   93 1    
    50   24   25 am   BACKBONE|DICT|INTERRES
    51   24   94 1    
    52   25   26 2    
    53   25   27 1    
    54   27   28 1    
    55   27   29 1    
    56   27   95 1    
    57   28   96 1    
    58   28   97 1    
    59   28   98 1    
    60   29   30 am   BACKBONE|DICT|INTERRES
    61   29   99 1    
    62   30   31 2    
    63   30   32 1    
    64   32   33 1    
    65   32   34 1    
    66   32  100 1    
    67   33  101 1    
    68   33  102 1    
    69   33  103 1    
    70   34   35 am   BACKBONE|DICT|INTERRES
    71   34  104 1    
    72   35   36 2    
    73   37   38 2    
    74   37   39 am   BACKBONE|DICT|INTERRES
    75   39   40 1    
    76   39  105 1    
    77   40   41 1    
    78   40   42 1    
    79   40  106 1    
    80   41  107 1    
    81   41  108 1    
    82   41  109 1    
    83   42   43 2    
    84   42   44 am   BACKBONE|DICT|INTERRES
    85   44   45 1    
    86   44  110 1    
    87   45   46 1    
    88   45   47 1    
    89   45  111 1    
    90   46  112 1    
    91   46  113 1    
    92   46  114 1    
    93   47   48 2    
    94   47   49 am   BACKBONE|DICT|INTERRES
    95   49   50 1    
    96   49  115 1    
    97   50   51 1    
    98   50   52 1    
    99   50  116 1    
   100   51  117 1    
   101   51  118 1    
   102   51  119 1    
   103   52   53 2    
   104   52   54 am   BACKBONE|DICT|INTERRES
   105   54   55 1    
   106   54  120 1    
   107   55   56 1    
   108   55   57 1    
   109   55  121 1    
   110   56  122 1    
   111   56  123 1    
   112   56  124 1    
   113   57   58 2    
   114   57   59 am   BACKBONE|DICT|INTERRES
   115   59   60 1    
   116   59  125 1    
   117   60   61 1    
   118   60   62 1    
   119   60  126 1    
   120   61  127 1    
   121   61  128 1    
   122   61  129 1    
   123   62   63 2    
   124   62   64 am   BACKBONE|DICT|INTERRES
   125   64   65 1    
   126   64  130 1    
   127   65   66 1    
   128   65   69 1    
   129   65  131 1    
   130   66   67 am   BACKBONE|DICT|INTERRES
   131   66   68 2    
   132   67  132 1    
   133   67  133 1    
   134   69   70 1    
   135   69  134 1    
   136   69  135 1    
   137   70   71 1    
   138   71  136 1    
   139   71  137 1    
@<TRIPOS>SUBSTRUCTURE
     1 UNK         1 GROUP             0       ****    0 ROOT    
