@<TRIPOS>MOLECULE
3R137
137   139    1
SMALL
USER_CHARGES


@<TRIPOS>ATOM
      1 CA         28.6915    0.4286    2.2836 C.3       0 UNK        -0.2020 
      2 C          28.5127    0.0245    0.8283 C.2       0 UNK         0.4855 
      3 O          28.9319    0.7572   -0.0689 O.2       0 UNK        -0.5197 
      4 N          27.8839   -1.1316    0.5794 N.am      1 UNK        -0.4892 
      5 CA         27.6053   -1.6764   -0.7547 C.3       1 UNK         0.0835 
      6 C6         27.5489   -3.2274   -0.7125 C.3       12 UNK        -0.0855 
      7 S7         27.9262   -3.9670   -2.3333 S.3       12 UNK        -0.2931 
      8 C8         29.7168   -4.2883   -2.2143 C.3       12 UNK         0.0378 
      9 C9         30.3775   -4.3036   -3.5893 C.ar      12 UNK        -0.0802 
     10 C10        31.4606   -3.4602   -3.8596 C.ar      12 UNK        -0.0944 
     11 C11        32.0606   -3.4513   -5.1230 C.ar      12 UNK        -0.0787 
     12 C12        31.5668   -4.2964   -6.1227 C.ar      12 UNK        -0.0862 
     13 C13        30.4781   -5.1356   -5.8711 C.ar      12 UNK        -0.0733 
     14 C14        29.9032   -5.1504   -4.5966 C.ar      12 UNK        -0.0832 
     15 C15        29.9229   -6.0231   -6.9773 C.3       12 UNK         0.0240 
     16 S16        28.9324   -5.0849   -8.1888 S.3       12 UNK        -0.2522 
     17 C17        27.4752   -4.6025   -7.1979 C.3       12 UNK        -0.0967 
     18 CA         26.8625   -3.2339   -7.6077 C.3       5 UNK         0.0660 
     19 N          25.5213   -3.0224   -7.0499 N.am      5 UNK        -0.4015 
     20 C          25.1837   -3.0158   -5.7546 C.2       4 UNK         0.4946 
     21 O          25.9961   -3.1018   -4.8361 O.2       4 UNK        -0.5353 
     22 CA         23.6904   -2.8835   -5.4245 C.3       4 UNK         0.0277 
     23 CB         23.2703   -3.8594   -4.3109 C.3       4 UNK        -0.1981 
     24 N          23.4075   -1.5195   -4.9944 N.am      4 UNK        -0.4209 
     25 C          23.2917   -0.4749   -5.8229 C.2       3 UNK         0.4942 
     26 O          23.3173   -0.5702   -7.0510 O.2       3 UNK        -0.5208 
     27 CA         23.1185    0.9120   -5.1802 C.3       3 UNK         0.0250 
     28 CB         21.6287    1.2842   -5.1065 C.3       3 UNK        -0.1990 
     29 N          23.7156    1.0506   -3.8465 N.am      3 UNK        -0.4232 
     30 C          25.0166    0.9103   -3.5522 C.2       2 UNK         0.4993 
     31 O          25.8698    0.5880   -4.3807 O.2       2 UNK        -0.5286 
     32 CA         25.4508    1.2414   -2.1100 C.3       2 UNK         0.0209 
     33 CB         24.2837    1.3811   -1.1039 C.3       2 UNK        -0.1931 
     34 N          26.4691    0.3185   -1.5976 N.am      2 UNK        -0.4546 
     35 C          26.3529   -0.9976   -1.3662 C.2       1 UNK         0.5154 
     36 O          25.3132   -1.6356   -1.5456 O.2       1 UNK        -0.5181 
     37 C          27.8253   -2.0497   -7.3674 C.2       5 UNK         0.5014 
     38 O          28.3096   -1.4813   -8.3452 O.2       5 UNK        -0.5248 
     39 N          28.0942   -1.7028   -6.1013 N.am      6 UNK        -0.4434 
     40 CA         29.1600   -0.7867   -5.6779 C.3       6 UNK         0.0363 
     41 CB         29.1818   -0.6774   -4.1478 C.3       6 UNK        -0.1936 
     42 C          29.1047    0.6087   -6.3178 C.2       6 UNK         0.5081 
     43 O          30.1205    1.0790   -6.8327 O.2       6 UNK        -0.5248 
     44 N          27.9283    1.2475   -6.2907 N.am      7 UNK        -0.4718 
     45 CA         27.7073    2.5605   -6.9042 C.3       7 UNK         0.0273 
     46 CB         26.4104    3.1757   -6.3592 C.3       7 UNK        -0.1935 
     47 C          27.6694    2.5103   -8.4408 C.2       7 UNK         0.5018 
     48 O          28.0678    3.4835   -9.0801 O.2       7 UNK        -0.5186 
     49 N          27.2036    1.3871   -9.0055 N.am      8 UNK        -0.4240 
     50 CA         27.1206    1.1575  -10.4507 C.3       8 UNK         0.0235 
     51 CB         26.1693   -0.0162  -10.7381 C.3       8 UNK        -0.2000 
     52 C          28.5039    0.9152  -11.0745 C.2       8 UNK         0.4941 
     53 O          28.8069    1.4841  -12.1236 O.2       8 UNK        -0.5273 
     54 N          29.3266    0.1022  -10.3991 N.am      9 UNK        -0.4262 
     55 CA         30.7231   -0.1660  -10.7487 C.3       9 UNK         0.0264 
     56 CB         31.1542   -1.4768  -10.0718 C.3       9 UNK        -0.1955 
     57 C          31.6780    0.9848  -10.3746 C.2       9 UNK         0.5031 
     58 O          32.8140    0.9910  -10.8513 O.2       9 UNK        -0.5390 
     59 N          31.2052    1.9257   -9.5425 N.am      10 UNK        -0.4204 
     60 CA         31.9083    3.0959   -9.0055 C.3       10 UNK         0.0237 
     61 CB         32.2844    4.0853  -10.1295 C.3       10 UNK        -0.1985 
     62 C          33.0978    2.7016   -8.1100 C.2       10 UNK         0.4970 
     63 O          34.1892    3.2587   -8.2457 O.2       10 UNK        -0.4914 
     64 N          32.8504    1.7454   -7.2100 N.am      11 UNK        -0.4285 
     65 CA         33.8126    1.2001   -6.2413 C.3       11 UNK         0.1007 
     66 C          33.3214    1.2771   -4.7674 C.2       11 UNK         0.5703 
     67 N          32.1179    1.7656   -4.4892 N.am      11 UNK        -0.7361 
     68 O          34.0598    0.9157   -3.8543 O.2       11 UNK        -0.4986 
     69 C69        34.2861   -0.2213   -6.6492 C.3       12 UNK        -0.0947 
     70 S70        32.9198   -1.4204   -6.8049 S.3       12 UNK        -0.2240 
     71 C71        33.2424   -2.5311   -5.4013 C.3       12 UNK         0.0194 
     72 H72        29.7503    0.5480    2.5117 H         1 UNK         0.0906 
     73 H73        28.1930    1.3789    2.4726 H         1 UNK         0.0906 
     74 H74        28.2791   -0.3131    2.9675 H         1 UNK         0.0906 
     75 H75        27.5245   -1.6727    1.3537 H         1 UNK         0.3140 
     76 H76        28.4475   -1.4046   -1.3946 H         1 UNK         0.1085 
     77 H77        26.5761   -3.5851   -0.3702 H         1 UNK         0.0836 
     78 H78        28.2716   -3.6166    0.0068 H         1 UNK         0.0836 
     79 H79        30.1766   -3.5260   -1.5833 H         1 UNK         0.0731 
     80 H80        29.8811   -5.2460   -1.7189 H         1 UNK         0.0731 
     81 H81        31.8338   -2.8027   -3.0863 H         1 UNK         0.1312 
     82 H82        32.0179   -4.2854   -7.1057 H         1 UNK         0.1406 
     83 H83        29.0630   -5.8002   -4.3920 H         1 UNK         0.1631 
     84 H84        30.7500   -6.5061   -7.4995 H         1 UNK         0.0717 
     85 H85        29.3146   -6.8279   -6.5615 H         1 UNK         0.0717 
     86 H86        26.7298   -5.3900   -7.3179 H         1 UNK         0.0934 
     87 H87        27.7297   -4.5993   -6.1387 H         1 UNK         0.0934 
     88 H88        26.7010   -3.2732   -8.6864 H         1 UNK         0.0739 
     89 H89        24.7902   -2.8658   -7.7302 H         1 UNK         0.3093 
     90 H90        23.1012   -3.1132   -6.3151 H         1 UNK         0.0818 
     91 H91        22.2011   -3.7949   -4.1089 H         1 UNK         0.0819 
     92 H92        23.4862   -4.8901   -4.5951 H         1 UNK         0.0819 
     93 H93        23.8003   -3.6620   -3.3773 H         1 UNK         0.0819 
     94 H94        23.4469   -1.3417   -4.0009 H         1 UNK         0.3041 
     95 H95        23.6113    1.6310   -5.8351 H         1 UNK         0.0784 
     96 H96        21.1601    1.2164   -6.0895 H         1 UNK         0.0793 
     97 H97        21.0790    0.6207   -4.4375 H         1 UNK         0.0793 
     98 H98        21.4906    2.3071   -4.7555 H         1 UNK         0.0793 
     99 H99        23.0894    1.3190   -3.1012 H         1 UNK         0.3024 
    100 H100       25.9406    2.2144   -2.1749 H         1 UNK         0.1171 
    101 H101       23.6849    0.4717   -1.0397 H         1 UNK         0.0786 
    102 H102       24.6566    1.5982   -0.1027 H         1 UNK         0.0786 
    103 H103       23.6186    2.2023   -1.3736 H         1 UNK         0.0786 
    104 H104       27.3647    0.7378   -1.3665 H         1 UNK         0.2977 
    105 H105       27.5718   -2.1837   -5.3712 H         1 UNK         0.3127 
    106 H106       30.0981   -1.2467   -5.9908 H         1 UNK         0.0770 
    107 H107       28.2747   -0.2142   -3.7635 H         1 UNK         0.0814 
    108 H108       30.0266   -0.0775   -3.8094 H         1 UNK         0.0814 
    109 H109       29.2764   -1.6575   -3.6866 H         1 UNK         0.0814 
    110 H110       27.1547    0.8355   -5.7713 H         1 UNK         0.2983 
    111 H111       28.5357    3.2129   -6.6184 H         1 UNK         0.0947 
    112 H112       26.2518    4.1761   -6.7642 H         1 UNK         0.0806 
    113 H113       26.4382    3.2661   -5.2733 H         1 UNK         0.0806 
    114 H114       25.5427    2.5741   -6.6269 H         1 UNK         0.0806 
    115 H115       26.9550    0.6168   -8.4010 H         1 UNK         0.3000 
    116 H116       26.6998    2.0531  -10.9135 H         1 UNK         0.0850 
    117 H117       26.0635   -0.1754  -11.8121 H         1 UNK         0.0810 
    118 H118       25.1725    0.1746  -10.3397 H         1 UNK         0.0810 
    119 H119       26.5294   -0.9501  -10.3060 H         1 UNK         0.0810 
    120 H120       28.9678   -0.3795   -9.5730 H         1 UNK         0.3040 
    121 H121       30.7906   -0.3026  -11.8300 H         1 UNK         0.0766 
    122 H122       31.0201   -1.4274   -8.9912 H         1 UNK         0.0812 
    123 H123       30.5701   -2.3218  -10.4366 H         1 UNK         0.0812 
    124 H124       32.2049   -1.6982  -10.2640 H         1 UNK         0.0812 
    125 H125       30.2760    1.7771   -9.1727 H         1 UNK         0.3205 
    126 H126       31.1939    3.6007   -8.3532 H         1 UNK         0.0754 
    127 H127       32.6920    5.0085   -9.7159 H         1 UNK         0.0769 
    128 H128       31.4125    4.3550  -10.7258 H         1 UNK         0.0769 
    129 H129       33.0363    3.6714  -10.8021 H         1 UNK         0.0769 
    130 H130       31.9109    1.3559   -7.1573 H         1 UNK         0.2981 
    131 H131       34.7003    1.8346   -6.2466 H         1 UNK         0.0541 
    132 H132       31.4905    2.0379   -5.2303 H         1 UNK         0.3459 
    133 H133       31.8266    1.8307   -3.5274 H         1 UNK         0.3459 
    134 H134       35.0369   -0.5968   -5.9518 H         1 UNK         0.0612 
    135 H135       34.7869   -0.1693   -7.6169 H         1 UNK         0.0612 
    136 H136       33.4734   -1.9298   -4.5206 H         1 UNK         0.0624 
    137 H137       34.1275   -3.1319   -5.6137 H         1 UNK         0.0624 
@<TRIPOS>BOND
     1    1    2 1    
     2    1   72 1    
     3    1   73 1    
     4    1   74 1    
     5    2    3 2    
     6    2    4 am   BACKBONE|DICT|INTERRES
     7    4    5 1    
     8    4   75 1    
     9    5    6 1    
    10    5   35 1    
    11    5   76 1    
    12    6    7 1    
    13    6   77 1    
    14    6   78 1    
    15    7    8 1    
    16    8    9 1    
    17    8   79 1    
    18    8   80 1    
    19    9   10 ar   
    20    9   14 ar   
    21   10   11 ar   
    22   10   81 1    
    23   11   12 ar   
    24   11   71 1    
    25   12   13 ar   
    26   12   82 1    
    27   13   14 ar   
    28   13   15 1    
    29   14   83 1    
    30   15   16 1    
    31   15   84 1    
    32   15   85 1    
    33   16   17 1    
    34   17   18 1    
    35   17   86 1    
    36   17   87 1    
    37   18   19 1    
    38   18   37 1    
    39   18   88 1    
    40   19   20 am   BACKBONE|DICT|INTERRES
    41   19   89 1    
    42   20   21 2    
    43   20   22 1    
    44   22   23 1    
    45   22   24 1    
    46   22   90 1    
    47   23   91 1    
    48   23   92 1    
    49   23   93 1    
    50   24   25 am   BACKBONE|DICT|INTERRES
    51   24   94 1    
    52   25   26 2    
    53   25   27 1    
    54   27   28 1    
    55   27   29 1    
    56   27   95 1    
    57   28   96 1    
    58   28   97 1    
    59   28   98 1    
    60   29   30 am   BACKBONE|DICT|INTERRES
    61   29   99 1    
    62   30   31 2    
    63   30   32 1    
    64   32   33 1    
    65   32   34 1    
    66   32  100 1    
    67   33  101 1    
    68   33  102 1    
    69   33  103 1    
    70   34   35 am   BACKBONE|DICT|INTERRES
    71   34  104 1    
    72   35   36 2    
    73   37   38 2    
    74   37   39 am   BACKBONE|DICT|INTERRES
    75   39   40 1    
    76   39  105 1    
    77   40   41 1    
    78   40   42 1    
    79   40  106 1    
    80   41  107 1    
    81   41  108 1    
    82   41  109 1    
    83   42   43 2    
    84   42   44 am   BACKBONE|DICT|INTERRES
    85   44   45 1    
    86   44  110 1    
    87   45   46 1    
    88   45   47 1    
    89   45  111 1    
    90   46  112 1    
    91   46  113 1    
    92   46  114 1    
    93   47   48 2    
    94   47   49 am   BACKBONE|DICT|INTERRES
    95   49   50 1    
    96   49  115 1    
    97   50   51 1    
    98   50   52 1    
    99   50  116 1    
   100   51  117 1    
   101   51  118 1    
   102   51  119 1    
   103   52   53 2    
   104   52   54 am   BACKBONE|DICT|INTERRES
   105   54   55 1    
   106   54  120 1    
   107   55   56 1    
   108   55   57 1    
   109   55  121 1    
   110   56  122 1    
   111   56  123 1    
   112   56  124 1    
   113   57   58 2    
   114   57   59 am   BACKBONE|DICT|INTERRES
   115   59   60 1    
   116   59  125 1    
   117   60   61 1    
   118   60   62 1    
   119   60  126 1    
   120   61  127 1    
   121   61  128 1    
   122   61  129 1    
   123   62   63 2    
   124   62   64 am   BACKBONE|DICT|INTERRES
   125   64   65 1    
   126   64  130 1    
   127   65   66 1    
   128   65   69 1    
   129   65  131 1    
   130   66   67 am   BACKBONE|DICT|INTERRES
   131   66   68 2    
   132   67  132 1    
   133   67  133 1    
   134   69   70 1    
   135   69  134 1    
   136   69  135 1    
   137   70   71 1    
   138   71  136 1    
   139   71  137 1    
@<TRIPOS>SUBSTRUCTURE
     1 UNK         1 GROUP             0       ****    0 ROOT    
