@<TRIPOS>MOLECULE
3R137
137   139    1
SMALL
USER_CHARGES


@<TRIPOS>ATOM
      1 CA         28.1184   -2.2958    1.4027 C.3       0 UNK        -0.2020 
      2 C          27.4332   -3.6474    1.2179 C.2       0 UNK         0.4855 
      3 O          27.2171   -4.3541    2.2000 O.2       0 UNK        -0.5197 
      4 N          27.0739   -4.0552   -0.0079 N.am      1 UNK        -0.4892 
      5 CA         27.2417   -3.3206   -1.2717 C.3       1 UNK         0.0835 
      6 C6         27.2838   -4.2743   -2.4918 C.3       12 UNK        -0.0855 
      7 S7         28.6317   -5.5012   -2.3843 S.3       12 UNK        -0.2931 
      8 C8         29.2881   -5.4936   -4.0930 C.3       12 UNK         0.0378 
      9 C9         30.0947   -4.2601   -4.5129 C.ar      12 UNK        -0.0802 
     10 C10        30.5378   -4.1826   -5.8389 C.ar      12 UNK        -0.0944 
     11 C11        31.2888   -3.0897   -6.2815 C.ar      12 UNK        -0.0787 
     12 C12        31.5961   -2.0613   -5.3894 C.ar      12 UNK        -0.0862 
     13 C13        31.1479   -2.1103   -4.0690 C.ar      12 UNK        -0.0733 
     14 C14        30.4140   -3.2166   -3.6321 C.ar      12 UNK        -0.0832 
     15 C15        31.4391   -0.9542   -3.1231 C.3       12 UNK         0.0240 
     16 S16        30.6078    0.5802   -3.6516 S.3       12 UNK        -0.2522 
     17 C17        28.8514    0.0768   -3.6813 C.3       12 UNK        -0.0967 
     18 CA         28.3075   -0.1928   -5.1094 C.3       5 UNK         0.0660 
     19 N          27.0268   -0.9106   -5.0771 N.am      5 UNK        -0.4015 
     20 C          26.4049   -1.4010   -6.1612 C.2       4 UNK         0.4946 
     21 O          26.8665   -1.3369   -7.2992 O.2       4 UNK        -0.5353 
     22 CA         25.0107   -2.0214   -5.9716 C.3       4 UNK         0.0277 
     23 CB         25.1065   -3.5078   -5.5984 C.3       4 UNK        -0.1981 
     24 N          24.1694   -1.3233   -4.9991 N.am      4 UNK        -0.4209 
     25 C          23.7926   -0.0405   -5.0606 C.2       3 UNK         0.4942 
     26 O          24.1490    0.7296   -5.9523 O.2       3 UNK        -0.5208 
     27 CA         22.8889    0.4890   -3.9303 C.3       3 UNK         0.0250 
     28 CB         21.4094    0.1530   -4.1998 C.3       3 UNK        -0.1990 
     29 N          23.3069    0.0829   -2.5783 N.am      3 UNK        -0.4232 
     30 C          23.3384   -1.1463   -2.0426 C.2       2 UNK         0.4993 
     31 O          22.9315   -2.1642   -2.6083 O.2       2 UNK        -0.5286 
     32 CA         24.0016   -1.2710   -0.6610 C.3       2 UNK         0.0209 
     33 CB         22.9680   -1.6661    0.4063 C.3       2 UNK        -0.1931 
     34 N          25.0982   -2.2462   -0.6589 N.am      2 UNK        -0.4546 
     35 C          26.1643   -2.2322   -1.4755 C.2       1 UNK         0.5154 
     36 O          26.3317   -1.3915   -2.3602 O.2       1 UNK        -0.5181 
     37 C          28.2198    1.1020   -5.9450 C.2       5 UNK         0.5014 
     38 O          29.1143    1.3686   -6.7498 O.2       5 UNK        -0.5248 
     39 N          27.1289    1.8618   -5.7659 N.am      6 UNK        -0.4434 
     40 CA         26.8454    3.0843   -6.5175 C.3       6 UNK         0.0363 
     41 CB         25.7297    3.8816   -5.8230 C.3       6 UNK        -0.1936 
     42 C          26.4849    2.7904   -7.9812 C.2       6 UNK         0.5081 
     43 O          26.9843    3.4784   -8.8704 O.2       6 UNK        -0.5248 
     44 N          25.6634    1.7557   -8.2121 N.am      7 UNK        -0.4718 
     45 CA         25.2645    1.2885   -9.5447 C.3       7 UNK         0.0273 
     46 CB         24.1893    0.1995   -9.4098 C.3       7 UNK        -0.1935 
     47 C          26.4493    0.7832  -10.3872 C.2       7 UNK         0.5018 
     48 O          26.5143    1.0809  -11.5802 O.2       7 UNK        -0.5186 
     49 N          27.3806    0.0653   -9.7449 N.am      8 UNK        -0.4240 
     50 CA         28.6395   -0.3977  -10.3347 C.3       8 UNK         0.0235 
     51 CB         29.1142   -1.6400   -9.5669 C.3       8 UNK        -0.2000 
     52 C          29.7416    0.6814  -10.3696 C.2       8 UNK         0.4941 
     53 O          30.8230    0.4032  -10.8892 O.2       8 UNK        -0.5273 
     54 N          29.4614    1.8761   -9.8261 N.am      9 UNK        -0.4262 
     55 CA         30.3187    3.0648   -9.7741 C.3       9 UNK         0.0264 
     56 CB         30.5276    3.6431  -11.1904 C.3       9 UNK        -0.1955 
     57 C          31.6387    2.8483   -9.0071 C.2       9 UNK         0.5031 
     58 O          32.6800    3.3436   -9.4430 O.2       9 UNK        -0.5390 
     59 N          31.5587    2.1393   -7.8692 N.am      10 UNK        -0.4204 
     60 CA         32.6373    1.8500   -6.9153 C.3       10 UNK         0.0237 
     61 CB         33.0033    3.1232   -6.1241 C.3       10 UNK        -0.1985 
     62 C          33.8612    1.1796   -7.5709 C.2       10 UNK         0.4970 
     63 O          34.9334    1.7843   -7.6439 O.2       10 UNK        -0.4914 
     64 N          33.6568   -0.0514   -8.0580 N.am      11 UNK        -0.4285 
     65 CA         34.6639   -0.8993   -8.7176 C.3       11 UNK         0.1007 
     66 C          35.9715   -1.1259   -7.8994 C.2       11 UNK         0.5703 
     67 N          37.0882   -1.3640   -8.5750 N.am      11 UNK        -0.7361 
     68 O          35.9780   -1.1234   -6.6692 O.2       11 UNK        -0.4986 
     69 C69        34.0398   -2.2381   -9.2058 C.3       12 UNK        -0.0947 
     70 S70        33.5282   -3.3712   -7.8636 S.3       12 UNK        -0.2240 
     71 C71        31.7571   -2.9970   -7.7238 C.3       12 UNK         0.0194 
     72 H72        27.4974   -1.4809    1.0331 H         1 UNK         0.0906 
     73 H73        28.3093   -2.1082    2.4592 H         1 UNK         0.0906 
     74 H74        29.0779   -2.2732    0.8869 H         1 UNK         0.0906 
     75 H75        26.6571   -4.9711   -0.1020 H         1 UNK         0.3140 
     76 H76        28.1964   -2.7942   -1.2423 H         1 UNK         0.1085 
     77 H77        27.4192   -3.6988   -3.4095 H         1 UNK         0.0836 
     78 H78        26.3390   -4.8110   -2.5983 H         1 UNK         0.0836 
     79 H79        29.9270   -6.3704   -4.2069 H         1 UNK         0.0731 
     80 H80        28.4553   -5.6306   -4.7848 H         1 UNK         0.0731 
     81 H81        30.2994   -4.9798   -6.5301 H         1 UNK         0.1312 
     82 H82        32.1739   -1.2123   -5.7241 H         1 UNK         0.1406 
     83 H83        30.0940   -3.2519   -2.6024 H         1 UNK         0.1631 
     84 H84        32.5155   -0.7804   -3.0883 H         1 UNK         0.0717 
     85 H85        31.1324   -1.1929   -2.1035 H         1 UNK         0.0717 
     86 H86        28.2576    0.8396   -3.1744 H         1 UNK         0.0934 
     87 H87        28.7521   -0.8211   -3.0719 H         1 UNK         0.0934 
     88 H88        29.0105   -0.8527   -5.6211 H         1 UNK         0.0739 
     89 H89        26.5961   -1.0257   -4.1618 H         1 UNK         0.3093 
     90 H90        24.5030   -1.9566   -6.9351 H         1 UNK         0.0818 
     91 H91        24.1413   -4.0022   -5.7095 H         1 UNK         0.0819 
     92 H92        25.8154   -4.0343   -6.2394 H         1 UNK         0.0819 
     93 H93        25.4264   -3.6419   -4.5674 H         1 UNK         0.0819 
     94 H94        23.8131   -1.8650   -4.2144 H         1 UNK         0.3041 
     95 H95        22.9812    1.5762   -3.9496 H         1 UNK         0.0784 
     96 H96        21.0909    0.5533   -5.1634 H         1 UNK         0.0793 
     97 H97        21.2286   -0.9220   -4.2225 H         1 UNK         0.0793 
     98 H98        20.7601    0.5859   -3.4389 H         1 UNK         0.0793 
     99 H99        23.6981    0.8341   -2.0262 H         1 UNK         0.3024 
    100 H100       24.4280   -0.3045   -0.3839 H         1 UNK         0.1171 
    101 H101       23.4135   -1.6956    1.4009 H         1 UNK         0.0786 
    102 H102       22.5334   -2.6459    0.2030 H         1 UNK         0.0786 
    103 H103       22.1481   -0.9472    0.4410 H         1 UNK         0.0786 
    104 H104       25.0371   -2.9941    0.0169 H         1 UNK         0.2977 
    105 H105       26.4087    1.5381   -5.1367 H         1 UNK         0.3127 
    106 H106       27.7490    3.6982   -6.5156 H         1 UNK         0.0770 
    107 H107       24.7926    3.3257   -5.7851 H         1 UNK         0.0814 
    108 H108       25.5320    4.8137   -6.3540 H         1 UNK         0.0814 
    109 H109       26.0064    4.1443   -4.8019 H         1 UNK         0.0814 
    110 H110       25.2578    1.2715   -7.4143 H         1 UNK         0.2983 
    111 H111       24.8251    2.1384  -10.0714 H         1 UNK         0.0947 
    112 H112       23.8202   -0.1065  -10.3895 H         1 UNK         0.0806 
    113 H113       23.3331    0.5534   -8.8350 H         1 UNK         0.0806 
    114 H114       24.5797   -0.6906   -8.9171 H         1 UNK         0.0806 
    115 H115       27.2125   -0.2013   -8.7763 H         1 UNK         0.3000 
    116 H116       28.4518   -0.6935  -11.3690 H         1 UNK         0.0850 
    117 H117       30.0230   -2.0501  -10.0085 H         1 UNK         0.0810 
    118 H118       28.3621   -2.4289   -9.5850 H         1 UNK         0.0810 
    119 H119       29.3219   -1.4044   -8.5224 H         1 UNK         0.0810 
    120 H120       28.5461    1.9975   -9.4098 H         1 UNK         0.3040 
    121 H121       29.7627    3.8071   -9.1996 H         1 UNK         0.0766 
    122 H122       31.0492    4.6001  -11.1501 H         1 UNK         0.0812 
    123 H123       31.1207    2.9754  -11.8162 H         1 UNK         0.0812 
    124 H124       29.5752    3.8160  -11.6916 H         1 UNK         0.0812 
    125 H125       30.6356    1.8023   -7.5886 H         1 UNK         0.3205 
    126 H126       32.2306    1.1339   -6.2008 H         1 UNK         0.0754 
    127 H127       33.7623    2.9091   -5.3707 H         1 UNK         0.0769 
    128 H128       32.1346    3.5255   -5.6026 H         1 UNK         0.0769 
    129 H129       33.3980    3.9060   -6.7728 H         1 UNK         0.0769 
    130 H130       32.7386   -0.4548   -7.9721 H         1 UNK         0.2981 
    131 H131       34.9568   -0.3424   -9.6097 H         1 UNK         0.0541 
    132 H132       37.0959   -1.3827   -9.5829 H         1 UNK         0.3459 
    133 H133       37.9423   -1.5270   -8.0651 H         1 UNK         0.3459 
    134 H134       34.7576   -2.7729   -9.8301 H         1 UNK         0.0612 
    135 H135       33.1878   -2.0391   -9.8582 H         1 UNK         0.0612 
    136 H136       31.5638   -1.9893   -8.0890 H         1 UNK         0.0624 
    137 H137       31.1937   -3.6761   -8.3653 H         1 UNK         0.0624 
@<TRIPOS>BOND
     1    1    2 1    
     2    1   72 1    
     3    1   73 1    
     4    1   74 1    
     5    2    3 2    
     6    2    4 am   BACKBONE|DICT|INTERRES
     7    4    5 1    
     8    4   75 1    
     9    5    6 1    
    10    5   35 1    
    11    5   76 1    
    12    6    7 1    
    13    6   77 1    
    14    6   78 1    
    15    7    8 1    
    16    8    9 1    
    17    8   79 1    
    18    8   80 1    
    19    9   10 ar   
    20    9   14 ar   
    21   10   11 ar   
    22   10   81 1    
    23   11   12 ar   
    24   11   71 1    
    25   12   13 ar   
    26   12   82 1    
    27   13   14 ar   
    28   13   15 1    
    29   14   83 1    
    30   15   16 1    
    31   15   84 1    
    32   15   85 1    
    33   16   17 1    
    34   17   18 1    
    35   17   86 1    
    36   17   87 1    
    37   18   19 1    
    38   18   37 1    
    39   18   88 1    
    40   19   20 am   BACKBONE|DICT|INTERRES
    41   19   89 1    
    42   20   21 2    
    43   20   22 1    
    44   22   23 1    
    45   22   24 1    
    46   22   90 1    
    47   23   91 1    
    48   23   92 1    
    49   23   93 1    
    50   24   25 am   BACKBONE|DICT|INTERRES
    51   24   94 1    
    52   25   26 2    
    53   25   27 1    
    54   27   28 1    
    55   27   29 1    
    56   27   95 1    
    57   28   96 1    
    58   28   97 1    
    59   28   98 1    
    60   29   30 am   BACKBONE|DICT|INTERRES
    61   29   99 1    
    62   30   31 2    
    63   30   32 1    
    64   32   33 1    
    65   32   34 1    
    66   32  100 1    
    67   33  101 1    
    68   33  102 1    
    69   33  103 1    
    70   34   35 am   BACKBONE|DICT|INTERRES
    71   34  104 1    
    72   35   36 2    
    73   37   38 2    
    74   37   39 am   BACKBONE|DICT|INTERRES
    75   39   40 1    
    76   39  105 1    
    77   40   41 1    
    78   40   42 1    
    79   40  106 1    
    80   41  107 1    
    81   41  108 1    
    82   41  109 1    
    83   42   43 2    
    84   42   44 am   BACKBONE|DICT|INTERRES
    85   44   45 1    
    86   44  110 1    
    87   45   46 1    
    88   45   47 1    
    89   45  111 1    
    90   46  112 1    
    91   46  113 1    
    92   46  114 1    
    93   47   48 2    
    94   47   49 am   BACKBONE|DICT|INTERRES
    95   49   50 1    
    96   49  115 1    
    97   50   51 1    
    98   50   52 1    
    99   50  116 1    
   100   51  117 1    
   101   51  118 1    
   102   51  119 1    
   103   52   53 2    
   104   52   54 am   BACKBONE|DICT|INTERRES
   105   54   55 1    
   106   54  120 1    
   107   55   56 1    
   108   55   57 1    
   109   55  121 1    
   110   56  122 1    
   111   56  123 1    
   112   56  124 1    
   113   57   58 2    
   114   57   59 am   BACKBONE|DICT|INTERRES
   115   59   60 1    
   116   59  125 1    
   117   60   61 1    
   118   60   62 1    
   119   60  126 1    
   120   61  127 1    
   121   61  128 1    
   122   61  129 1    
   123   62   63 2    
   124   62   64 am   BACKBONE|DICT|INTERRES
   125   64   65 1    
   126   64  130 1    
   127   65   66 1    
   128   65   69 1    
   129   65  131 1    
   130   66   67 am   BACKBONE|DICT|INTERRES
   131   66   68 2    
   132   67  132 1    
   133   67  133 1    
   134   69   70 1    
   135   69  134 1    
   136   69  135 1    
   137   70   71 1    
   138   71  136 1    
   139   71  137 1    
@<TRIPOS>SUBSTRUCTURE
     1 UNK         1 GROUP             0       ****    0 ROOT    
