@<TRIPOS>MOLECULE
3R137
137   139    1
SMALL
USER_CHARGES


@<TRIPOS>ATOM
      1 CA         23.1098   -5.1025   -3.2905 C.3       0 UNK        -0.2020 
      2 C          23.8954   -4.3307   -2.2417 C.2       0 UNK         0.4855 
      3 O          23.3591   -3.4045   -1.6325 O.2       0 UNK        -0.5197 
      4 N          25.1669   -4.6983   -2.0392 N.am      1 UNK        -0.4892 
      5 CA         26.1293   -4.0715   -1.1249 C.3       1 UNK         0.0835 
      6 C6         27.4848   -4.8352   -1.0871 C.3       12 UNK        -0.0855 
      7 S7         28.0643   -5.4718   -2.7055 S.3       12 UNK        -0.2931 
      8 C8         29.8680   -5.2646   -2.5956 C.3       12 UNK         0.0378 
      9 C9         30.3419   -3.9499   -3.2002 C.ar      12 UNK        -0.0802 
     10 C10        30.6177   -3.8690   -4.5699 C.ar      12 UNK        -0.0944 
     11 C11        31.1401   -2.6947   -5.1202 C.ar      12 UNK        -0.0787 
     12 C12        31.3882   -1.5992   -4.2907 C.ar      12 UNK        -0.0862 
     13 C13        31.0688   -1.6472   -2.9303 C.ar      12 UNK        -0.0733 
     14 C14        30.5516   -2.8297   -2.3894 C.ar      12 UNK        -0.0832 
     15 C15        31.2872   -0.4268   -2.0408 C.3       12 UNK         0.0240 
     16 S16        30.5671    1.1060   -2.7279 S.3       12 UNK        -0.2522 
     17 C17        28.8296    0.6194   -2.9917 C.3       12 UNK        -0.0967 
     18 CA         28.4988    0.4062   -4.4938 C.3       5 UNK         0.0660 
     19 N          27.5090   -0.6564   -4.6883 N.am      5 UNK        -0.4015 
     20 C          27.0969   -1.1323   -5.8714 C.2       4 UNK         0.4946 
     21 O          27.5571   -0.7773   -6.9535 O.2       4 UNK        -0.5353 
     22 CA         25.9241   -2.1243   -5.8518 C.3       4 UNK         0.0277 
     23 CB         26.4168   -3.5573   -5.6036 C.3       4 UNK        -0.1981 
     24 N          24.9199   -1.7511   -4.8528 N.am      4 UNK        -0.4209 
     25 C          24.1193   -0.6800   -4.9616 C.2       3 UNK         0.4942 
     26 O          24.0908    0.0536   -5.9486 O.2       3 UNK        -0.5208 
     27 CA         23.2463   -0.3317   -3.7456 C.3       3 UNK         0.0250 
     28 CB         21.9247   -1.1145   -3.7736 C.3       3 UNK        -0.1990 
     29 N          23.9457   -0.5615   -2.4786 N.am      3 UNK        -0.4232 
     30 C          24.9789    0.1855   -2.0585 C.2       2 UNK         0.4993 
     31 O          25.4055    1.1626   -2.6741 O.2       2 UNK        -0.5286 
     32 CA         25.6932   -0.2531   -0.7669 C.3       2 UNK         0.0209 
     33 CB         25.0391    0.4042    0.4584 C.3       2 UNK        -0.1931 
     34 N          25.7337   -1.7074   -0.5796 N.am      2 UNK        -0.4546 
     35 C          26.3027   -2.5710   -1.4328 C.2       1 UNK         0.5154 
     36 O          26.8854   -2.2203   -2.4578 O.2       1 UNK        -0.5181 
     37 C          28.0956    1.7257   -5.1833 C.2       5 UNK         0.5014 
     38 O          28.9500    2.3847   -5.7739 O.2       5 UNK        -0.5248 
     39 N          26.8042    2.0779   -5.1179 N.am      6 UNK        -0.4434 
     40 CA         26.2295    3.2156   -5.8329 C.3       6 UNK         0.0363 
     41 CB         24.8517    3.5545   -5.2405 C.3       6 UNK        -0.1936 
     42 C          26.1336    2.9699   -7.3494 C.2       6 UNK         0.5081 
     43 O          26.5551    3.8270   -8.1266 O.2       6 UNK        -0.5248 
     44 N          25.5615    1.8239   -7.7456 N.am      7 UNK        -0.4718 
     45 CA         25.2664    1.4883   -9.1421 C.3       7 UNK         0.0273 
     46 CB         24.2856    0.3058   -9.1882 C.3       7 UNK        -0.1935 
     47 C          26.5064    1.1827   -9.9978 C.2       7 UNK         0.5018 
     48 O          26.5512    1.5999  -11.1559 O.2       7 UNK        -0.5186 
     49 N          27.4732    0.4521   -9.4320 N.am      8 UNK        -0.4240 
     50 CA         28.6752   -0.0336  -10.1079 C.3       8 UNK         0.0235 
     51 CB         28.6170   -1.5712  -10.1936 C.3       8 UNK        -0.2000 
     52 C          29.9281    0.4683   -9.3779 C.2       8 UNK         0.4941 
     53 O          30.8464   -0.3116   -9.1201 O.2       8 UNK        -0.5273 
     54 N          29.9641    1.7781   -9.0895 N.am      9 UNK        -0.4262 
     55 CA         31.0409    2.4806   -8.3748 C.3       9 UNK         0.0264 
     56 CB         30.6987    3.9774   -8.2982 C.3       9 UNK        -0.1955 
     57 C          32.4539    2.2863   -8.9576 C.2       9 UNK         0.5031 
     58 O          33.4308    2.3703   -8.2116 O.2       9 UNK        -0.5390 
     59 N          32.5366    1.9816  -10.2607 N.am      10 UNK        -0.4204 
     60 CA         33.7551    1.6097  -10.9832 C.3       10 UNK         0.0237 
     61 CB         33.4150    1.4152  -12.4700 C.3       10 UNK        -0.1985 
     62 C          34.4751    0.3629  -10.4296 C.2       10 UNK         0.4970 
     63 O          35.6774    0.2316  -10.6640 O.2       10 UNK        -0.4914 
     64 N          33.7610   -0.5142   -9.7045 N.am      11 UNK        -0.4285 
     65 CA         34.3545   -1.6383   -8.9598 C.3       11 UNK         0.1007 
     66 C          35.2034   -1.1948   -7.7245 C.2       11 UNK         0.5703 
     67 N          35.0622    0.0252   -7.2146 N.am      11 UNK        -0.7361 
     68 O          36.0358   -1.9612   -7.2447 O.2       11 UNK        -0.4986 
     69 C69        33.3099   -2.7844   -8.7151 C.3       12 UNK        -0.0947 
     70 S70        33.0286   -3.3787   -7.0055 S.3       12 UNK        -0.2240 
     71 C71        31.4379   -2.5986   -6.6080 C.3       12 UNK         0.0194 
     72 H72        22.1419   -5.4020   -2.8894 H         1 UNK         0.0906 
     73 H73        22.9384   -4.4798   -4.1678 H         1 UNK         0.0906 
     74 H74        23.6350   -6.0024   -3.6102 H         1 UNK         0.0906 
     75 H75        25.5639   -5.4408   -2.5992 H         1 UNK         0.3140 
     76 H76        25.6977   -4.1455   -0.1243 H         1 UNK         0.1085 
     77 H77        27.3813   -5.7015   -0.4319 H         1 UNK         0.0836 
     78 H78        28.2622   -4.2221   -0.6271 H         1 UNK         0.0836 
     79 H79        30.3404   -6.0932   -3.1255 H         1 UNK         0.0731 
     80 H80        30.1948   -5.3538   -1.5585 H         1 UNK         0.0731 
     81 H81        30.4450   -4.7268   -5.2053 H         1 UNK         0.1312 
     82 H82        31.8021   -0.6927   -4.7110 H         1 UNK         0.1406 
     83 H83        30.3241   -2.8846   -1.3338 H         1 UNK         0.1631 
     84 H84        32.3587   -0.2802   -1.9002 H         1 UNK         0.0717 
     85 H85        30.8649   -0.5916   -1.0483 H         1 UNK         0.0717 
     86 H86        28.6522   -0.2960   -2.4270 H         1 UNK         0.0934 
     87 H87        28.1776    1.3673   -2.5360 H         1 UNK         0.0934 
     88 H88        29.3937    0.0567   -5.0095 H         1 UNK         0.0739 
     89 H89        27.1443   -1.0963   -3.8453 H         1 UNK         0.3093 
     90 H90        25.4490   -2.0981   -6.8347 H         1 UNK         0.0818 
     91 H91        27.1168   -3.8659   -6.3811 H         1 UNK         0.0819 
     92 H92        26.9378   -3.6443   -4.6515 H         1 UNK         0.0819 
     93 H93        25.5929   -4.2707   -5.6046 H         1 UNK         0.0819 
     94 H94        24.9350   -2.2588   -3.9803 H         1 UNK         0.3041 
     95 H95        23.0057    0.7320   -3.8083 H         1 UNK         0.0784 
     96 H96        21.3710   -0.9076   -4.6905 H         1 UNK         0.0793 
     97 H97        22.0859   -2.1909   -3.7282 H         1 UNK         0.0793 
     98 H98        21.2821   -0.8370   -2.9378 H         1 UNK         0.0793 
     99 H99        23.6769   -1.3818   -1.9432 H         1 UNK         0.3024 
    100 H100       26.7244    0.0992   -0.8317 H         1 UNK         0.1171 
    101 H101       25.5922    0.1822    1.3712 H         1 UNK         0.0786 
    102 H102       25.0159    1.4899    0.3522 H         1 UNK         0.0786 
    103 H103       24.0107    0.0681    0.5972 H         1 UNK         0.0786 
    104 H104       25.2303   -2.0725    0.2166 H         1 UNK         0.2977 
    105 H105       26.1777    1.5325   -4.5344 H         1 UNK         0.3127 
    106 H106       26.8812    4.0782   -5.6769 H         1 UNK         0.0770 
    107 H107       24.1499    2.7261   -5.3412 H         1 UNK         0.0814 
    108 H108       24.4130    4.4173   -5.7431 H         1 UNK         0.0814 
    109 H109       24.9267    3.7989   -4.1806 H         1 UNK         0.0814 
    110 H110       25.2095    1.1799   -7.0410 H         1 UNK         0.2983 
    111 H111       24.7695    2.3513   -9.5910 H         1 UNK         0.0947 
    112 H112       24.7088   -0.5858   -8.7240 H         1 UNK         0.0806 
    113 H113       24.0281    0.0490  -10.2167 H         1 UNK         0.0806 
    114 H114       23.3556    0.5417   -8.6706 H         1 UNK         0.0806 
    115 H115       27.3756    0.1527   -8.4603 H         1 UNK         0.3000 
    116 H116       28.7310    0.3578  -11.1255 H         1 UNK         0.0850 
    117 H117       29.4792   -1.9675  -10.7315 H         1 UNK         0.0810 
    118 H118       27.7239   -1.9052  -10.7214 H         1 UNK         0.0810 
    119 H119       28.6117   -2.0278   -9.2029 H         1 UNK         0.0810 
    120 H120       29.1516    2.3309   -9.3244 H         1 UNK         0.3040 
    121 H121       31.0629    2.0788   -7.3602 H         1 UNK         0.0766 
    122 H122       29.7458    4.1407   -7.7936 H         1 UNK         0.0812 
    123 H123       30.6370    4.4296   -9.2887 H         1 UNK         0.0812 
    124 H124       31.4574    4.5229   -7.7353 H         1 UNK         0.0812 
    125 H125       31.6731    1.9334  -10.7808 H         1 UNK         0.3205 
    126 H126       34.4512    2.4464  -10.8962 H         1 UNK         0.0754 
    127 H127       34.3079    1.1682  -13.0464 H         1 UNK         0.0769 
    128 H128       32.9940    2.3224  -12.9042 H         1 UNK         0.0769 
    129 H129       32.6982    0.6061  -12.6173 H         1 UNK         0.0769 
    130 H130       32.7718   -0.3457   -9.5432 H         1 UNK         0.2981 
    131 H131       35.0964   -2.0703   -9.6348 H         1 UNK         0.0541 
    132 H132       35.6309    0.2934   -6.4279 H         1 UNK         0.3459 
    133 H133       34.4189    0.6961   -7.6195 H         1 UNK         0.3459 
    134 H134       32.3416   -2.5250   -9.1453 H         1 UNK         0.0612 
    135 H135       33.6242   -3.6608   -9.2838 H         1 UNK         0.0612 
    136 H136       31.4665   -1.5520   -6.9132 H         1 UNK         0.0624 
    137 H137       30.6406   -3.0698   -7.1849 H         1 UNK         0.0624 
@<TRIPOS>BOND
     1    1    2 1    
     2    1   72 1    
     3    1   73 1    
     4    1   74 1    
     5    2    3 2    
     6    2    4 am   BACKBONE|DICT|INTERRES
     7    4    5 1    
     8    4   75 1    
     9    5    6 1    
    10    5   35 1    
    11    5   76 1    
    12    6    7 1    
    13    6   77 1    
    14    6   78 1    
    15    7    8 1    
    16    8    9 1    
    17    8   79 1    
    18    8   80 1    
    19    9   10 ar   
    20    9   14 ar   
    21   10   11 ar   
    22   10   81 1    
    23   11   12 ar   
    24   11   71 1    
    25   12   13 ar   
    26   12   82 1    
    27   13   14 ar   
    28   13   15 1    
    29   14   83 1    
    30   15   16 1    
    31   15   84 1    
    32   15   85 1    
    33   16   17 1    
    34   17   18 1    
    35   17   86 1    
    36   17   87 1    
    37   18   19 1    
    38   18   37 1    
    39   18   88 1    
    40   19   20 am   BACKBONE|DICT|INTERRES
    41   19   89 1    
    42   20   21 2    
    43   20   22 1    
    44   22   23 1    
    45   22   24 1    
    46   22   90 1    
    47   23   91 1    
    48   23   92 1    
    49   23   93 1    
    50   24   25 am   BACKBONE|DICT|INTERRES
    51   24   94 1    
    52   25   26 2    
    53   25   27 1    
    54   27   28 1    
    55   27   29 1    
    56   27   95 1    
    57   28   96 1    
    58   28   97 1    
    59   28   98 1    
    60   29   30 am   BACKBONE|DICT|INTERRES
    61   29   99 1    
    62   30   31 2    
    63   30   32 1    
    64   32   33 1    
    65   32   34 1    
    66   32  100 1    
    67   33  101 1    
    68   33  102 1    
    69   33  103 1    
    70   34   35 am   BACKBONE|DICT|INTERRES
    71   34  104 1    
    72   35   36 2    
    73   37   38 2    
    74   37   39 am   BACKBONE|DICT|INTERRES
    75   39   40 1    
    76   39  105 1    
    77   40   41 1    
    78   40   42 1    
    79   40  106 1    
    80   41  107 1    
    81   41  108 1    
    82   41  109 1    
    83   42   43 2    
    84   42   44 am   BACKBONE|DICT|INTERRES
    85   44   45 1    
    86   44  110 1    
    87   45   46 1    
    88   45   47 1    
    89   45  111 1    
    90   46  112 1    
    91   46  113 1    
    92   46  114 1    
    93   47   48 2    
    94   47   49 am   BACKBONE|DICT|INTERRES
    95   49   50 1    
    96   49  115 1    
    97   50   51 1    
    98   50   52 1    
    99   50  116 1    
   100   51  117 1    
   101   51  118 1    
   102   51  119 1    
   103   52   53 2    
   104   52   54 am   BACKBONE|DICT|INTERRES
   105   54   55 1    
   106   54  120 1    
   107   55   56 1    
   108   55   57 1    
   109   55  121 1    
   110   56  122 1    
   111   56  123 1    
   112   56  124 1    
   113   57   58 2    
   114   57   59 am   BACKBONE|DICT|INTERRES
   115   59   60 1    
   116   59  125 1    
   117   60   61 1    
   118   60   62 1    
   119   60  126 1    
   120   61  127 1    
   121   61  128 1    
   122   61  129 1    
   123   62   63 2    
   124   62   64 am   BACKBONE|DICT|INTERRES
   125   64   65 1    
   126   64  130 1    
   127   65   66 1    
   128   65   69 1    
   129   65  131 1    
   130   66   67 am   BACKBONE|DICT|INTERRES
   131   66   68 2    
   132   67  132 1    
   133   67  133 1    
   134   69   70 1    
   135   69  134 1    
   136   69  135 1    
   137   70   71 1    
   138   71  136 1    
   139   71  137 1    
@<TRIPOS>SUBSTRUCTURE
     1 UNK         1 GROUP             0       ****    0 ROOT    
