@<TRIPOS>MOLECULE
3R137
137   139    1
SMALL
USER_CHARGES


@<TRIPOS>ATOM
      1 CA         28.9222   -6.1165   -6.2617 C.3       0 UNK        -0.2020 
      2 C          28.0794   -5.1578   -5.4356 C.2       0 UNK         0.4855 
      3 O          27.7600   -4.0688   -5.9058 O.2       0 UNK        -0.5197 
      4 N          27.6944   -5.5626   -4.2180 N.am      1 UNK        -0.4892 
      5 CA         26.9433   -4.8033   -3.1999 C.3       1 UNK         0.0835 
      6 C6         27.7131   -3.5654   -2.6644 C.3       12 UNK        -0.0855 
      7 S7         29.1539   -4.0809   -1.6623 S.3       12 UNK        -0.2931 
      8 C8         30.5721   -3.5279   -2.6753 C.3       12 UNK         0.0378 
      9 C9         30.9215   -2.0377   -2.5995 C.ar      12 UNK        -0.0802 
     10 C10        32.0421   -1.5831   -3.3013 C.ar      12 UNK        -0.0944 
     11 C11        32.4010   -0.2305   -3.2957 C.ar      12 UNK        -0.0787 
     12 C12        31.6341    0.6747   -2.5564 C.ar      12 UNK        -0.0862 
     13 C13        30.5093    0.2452   -1.8447 C.ar      12 UNK        -0.0733 
     14 C14        30.1720   -1.1136   -1.8613 C.ar      12 UNK        -0.0832 
     15 C15        29.6946    1.2572   -1.0391 C.3       12 UNK         0.0240 
     16 S16        27.9121    0.8676   -0.9251 S.3       12 UNK        -0.2522 
     17 C17        27.2270    1.5606   -2.4646 C.3       12 UNK        -0.0967 
     18 CA         27.2220    0.5538   -3.6625 C.3       5 UNK         0.0660 
     19 N          25.9382    0.5613   -4.3684 N.am      5 UNK        -0.4015 
     20 C          25.4271    1.5653   -5.0972 C.2       4 UNK         0.4946 
     21 O          26.0579    2.5820   -5.3926 O.2       4 UNK        -0.5353 
     22 CA         23.9613    1.4325   -5.5597 C.3       4 UNK         0.0277 
     23 CB         23.8276    1.5514   -7.0873 C.3       4 UNK        -0.1981 
     24 N          23.3050    0.2022   -5.0977 N.am      4 UNK        -0.4209 
     25 C          22.8173    0.0129   -3.8647 C.2       3 UNK         0.4942 
     26 O          22.8874    0.8585   -2.9728 O.2       3 UNK        -0.5208 
     27 CA         22.1544   -1.3405   -3.5528 C.3       3 UNK         0.0250 
     28 CB         20.6922   -1.3591   -4.0399 C.3       3 UNK        -0.1990 
     29 N          22.8858   -2.5316   -4.0128 N.am      3 UNK        -0.4232 
     30 C          23.1329   -2.9502   -5.2611 C.2       2 UNK         0.4993 
     31 O          22.8769   -2.2894   -6.2694 O.2       2 UNK        -0.5286 
     32 CA         23.7680   -4.3476   -5.3915 C.3       2 UNK         0.0209 
     33 CB         23.7627   -4.8717   -6.8399 C.3       2 UNK        -0.1931 
     34 N          25.1333   -4.4163   -4.8616 N.am      2 UNK        -0.4546 
     35 C          25.4742   -4.4769   -3.5682 C.2       1 UNK         0.5154 
     36 O          24.6513   -4.3420   -2.6602 O.2       1 UNK        -0.5181 
     37 C          28.3845    0.6995   -4.6694 C.2       5 UNK         0.5014 
     38 O          28.5583   -0.1796   -5.5163 O.2       5 UNK        -0.5248 
     39 N          29.1171    1.8186   -4.6098 N.am      6 UNK        -0.4434 
     40 CA         30.2311    2.1585   -5.4929 C.3       6 UNK         0.0363 
     41 CB         30.8549    3.4772   -5.0119 C.3       6 UNK        -0.1936 
     42 C          29.8445    2.2566   -6.9777 C.2       6 UNK         0.5081 
     43 O          30.6788    1.9650   -7.8350 O.2       6 UNK        -0.5248 
     44 N          28.5920    2.6418   -7.2601 N.am      7 UNK        -0.4718 
     45 CA         28.0475    2.7108   -8.6169 C.3       7 UNK         0.0273 
     46 CB         26.9048    3.7367   -8.6548 C.3       7 UNK        -0.1935 
     47 C          27.5799    1.3429   -9.1440 C.2       7 UNK         0.5018 
     48 O          27.4993    1.1760  -10.3609 O.2       7 UNK        -0.5186 
     49 N          27.2948    0.3895   -8.2440 N.am      8 UNK        -0.4240 
     50 CA         26.9664   -0.9937   -8.5971 C.3       8 UNK         0.0235 
     51 CB         26.1299   -1.6545   -7.4881 C.3       8 UNK        -0.2000 
     52 C          28.2409   -1.8037   -8.8613 C.2       8 UNK         0.4941 
     53 O          28.3375   -2.4728   -9.8905 O.2       8 UNK        -0.5273 
     54 N          29.1991   -1.7105   -7.9313 N.am      9 UNK        -0.4262 
     55 CA         30.4740   -2.4263   -7.9785 C.3       9 UNK         0.0264 
     56 CB         31.0055   -2.5571   -6.5456 C.3       9 UNK        -0.1955 
     57 C          31.5184   -1.8036   -8.9275 C.2       9 UNK         0.5031 
     58 O          32.5249   -2.4588   -9.2019 O.2       9 UNK        -0.5390 
     59 N          31.2591   -0.5827   -9.4233 N.am      10 UNK        -0.4204 
     60 CA         32.0828    0.2102  -10.3468 C.3       10 UNK         0.0237 
     61 CB         32.2226   -0.4900  -11.7158 C.3       10 UNK        -0.1985 
     62 C          33.4329    0.6033   -9.7189 C.2       10 UNK         0.4970 
     63 O          34.4952    0.2604  -10.2422 O.2       10 UNK        -0.4914 
     64 N          33.3455    1.3127   -8.5923 N.am      11 UNK        -0.4285 
     65 CA         34.4661    1.7189   -7.7287 C.3       11 UNK         0.1007 
     66 C          34.2955    3.1468   -7.1381 C.2       11 UNK         0.5703 
     67 N          33.3959    3.9722   -7.6619 N.am      11 UNK        -0.7361 
     68 O          35.0085    3.5321   -6.2147 O.2       11 UNK        -0.4986 
     69 C69        34.8312    0.6272   -6.6773 C.3       12 UNK        -0.0947 
     70 S70        33.3770   -0.1133   -5.8663 S.3       12 UNK        -0.2240 
     71 C71        33.6051    0.2502   -4.1011 C.3       12 UNK         0.0194 
     72 H72        28.4159   -6.3490   -7.1945 H         1 UNK         0.0906 
     73 H73        29.8801   -5.6624   -6.5015 H         1 UNK         0.0906 
     74 H74        29.1132   -7.0495   -5.7375 H         1 UNK         0.0906 
     75 H75        27.9660   -6.4891   -3.9184 H         1 UNK         0.3140 
     76 H76        26.8436   -5.4981   -2.3638 H         1 UNK         0.1085 
     77 H77        27.0754   -2.9601   -2.0169 H         1 UNK         0.0836 
     78 H78        28.0262   -2.9094   -3.4788 H         1 UNK         0.0836 
     79 H79        31.4457   -4.0986   -2.3573 H         1 UNK         0.0731 
     80 H80        30.3890   -3.8048   -3.7132 H         1 UNK         0.0731 
     81 H81        32.6322   -2.2841   -3.8760 H         1 UNK         0.1312 
     82 H82        31.9115    1.7190   -2.5387 H         1 UNK         0.1406 
     83 H83        29.3164   -1.4454   -1.2935 H         1 UNK         0.1631 
     84 H84        29.8162    2.2624   -1.4451 H         1 UNK         0.0717 
     85 H85        30.1014    1.2846   -0.0276 H         1 UNK         0.0717 
     86 H86        26.1966    1.8124   -2.2060 H         1 UNK         0.0934 
     87 H87        27.6739    2.5299   -2.6829 H         1 UNK         0.0934 
     88 H88        27.3122   -0.4565   -3.2611 H         1 UNK         0.0739 
     89 H89        25.3521   -0.2455   -4.2180 H         1 UNK         0.3093 
     90 H90        23.4238    2.2774   -5.1237 H         1 UNK         0.0818 
     91 H91        22.8077    1.3518   -7.4163 H         1 UNK         0.0819 
     92 H92        24.0723    2.5613   -7.4148 H         1 UNK         0.0819 
     93 H93        24.4910    0.8718   -7.6178 H         1 UNK         0.0819 
     94 H94        23.1988   -0.5631   -5.7630 H         1 UNK         0.3041 
     95 H95        22.1307   -1.4243   -2.4648 H         1 UNK         0.0784 
     96 H96        20.1313   -0.5227   -3.6205 H         1 UNK         0.0793 
     97 H97        20.6213   -1.2834   -5.1255 H         1 UNK         0.0793 
     98 H98        20.1845   -2.2740   -3.7342 H         1 UNK         0.0793 
     99 H99        23.2410   -3.1309   -3.2714 H         1 UNK         0.3024 
    100 H100       23.1437   -5.0271   -4.8061 H         1 UNK         0.1171 
    101 H101       24.1411   -5.8926   -6.8935 H         1 UNK         0.0786 
    102 H102       24.3694   -4.2553   -7.5014 H         1 UNK         0.0786 
    103 H103       22.7504   -4.8817   -7.2462 H         1 UNK         0.0786 
    104 H104       25.8963   -4.4329   -5.5322 H         1 UNK         0.2977 
    105 H105       28.8746    2.5089   -3.9165 H         1 UNK         0.3127 
    106 H106       30.9709    1.3641   -5.4002 H         1 UNK         0.0770 
    107 H107       30.1636    4.3139   -5.1195 H         1 UNK         0.0814 
    108 H108       31.7471    3.7180   -5.5859 H         1 UNK         0.0814 
    109 H109       31.1560    3.4248   -3.9666 H         1 UNK         0.0814 
    110 H110       27.9504    2.8360   -6.4986 H         1 UNK         0.2983 
    111 H111       28.8308    3.0621   -9.2928 H         1 UNK         0.0947 
    112 H112       26.4616    3.7957   -9.6499 H         1 UNK         0.0806 
    113 H113       27.2626    4.7344   -8.4007 H         1 UNK         0.0806 
    114 H114       26.1099    3.4815   -7.9563 H         1 UNK         0.0806 
    115 H115       27.4584    0.5838   -7.2644 H         1 UNK         0.3000 
    116 H116       26.3710   -1.0019   -9.5128 H         1 UNK         0.0850 
    117 H117       26.0266   -2.7223   -7.6769 H         1 UNK         0.0810 
    118 H118       25.1237   -1.2458   -7.4397 H         1 UNK         0.0810 
    119 H119       26.5862   -1.5534   -6.5043 H         1 UNK         0.0810 
    120 H120       29.0092   -1.1734   -7.0873 H         1 UNK         0.3040 
    121 H121       30.2858   -3.4358   -8.3501 H         1 UNK         0.0766 
    122 H122       32.0253   -2.9431   -6.5234 H         1 UNK         0.0812 
    123 H123       30.3864   -3.2388   -5.9669 H         1 UNK         0.0812 
    124 H124       30.9949   -1.5982   -6.0295 H         1 UNK         0.0812 
    125 H125       30.4359   -0.1138   -9.0712 H         1 UNK         0.3205 
    126 H126       31.5390    1.1413  -10.5146 H         1 UNK         0.0754 
    127 H127       32.7444    0.1506  -12.4277 H         1 UNK         0.0769 
    128 H128       31.2468   -0.7222  -12.1424 H         1 UNK         0.0769 
    129 H129       32.7870   -1.4202  -11.6447 H         1 UNK         0.0769 
    130 H130       32.4187    1.5411   -8.2359 H         1 UNK         0.2981 
    131 H131       35.3425    1.8325   -8.3689 H         1 UNK         0.0541 
    132 H132       32.8135    3.6805   -8.4302 H         1 UNK         0.3459 
    133 H133       33.3100    4.9040   -7.2891 H         1 UNK         0.3459 
    134 H134       35.5324    0.9982   -5.9282 H         1 UNK         0.0612 
    135 H135       35.3529   -0.1862   -7.1834 H         1 UNK         0.0612 
    136 H136       34.5076   -0.2449   -3.7408 H         1 UNK         0.0624 
    137 H137       33.7565    1.3237   -3.9768 H         1 UNK         0.0624 
@<TRIPOS>BOND
     1    1    2 1    
     2    1   72 1    
     3    1   73 1    
     4    1   74 1    
     5    2    3 2    
     6    2    4 am   BACKBONE|DICT|INTERRES
     7    4    5 1    
     8    4   75 1    
     9    5    6 1    
    10    5   35 1    
    11    5   76 1    
    12    6    7 1    
    13    6   77 1    
    14    6   78 1    
    15    7    8 1    
    16    8    9 1    
    17    8   79 1    
    18    8   80 1    
    19    9   10 ar   
    20    9   14 ar   
    21   10   11 ar   
    22   10   81 1    
    23   11   12 ar   
    24   11   71 1    
    25   12   13 ar   
    26   12   82 1    
    27   13   14 ar   
    28   13   15 1    
    29   14   83 1    
    30   15   16 1    
    31   15   84 1    
    32   15   85 1    
    33   16   17 1    
    34   17   18 1    
    35   17   86 1    
    36   17   87 1    
    37   18   19 1    
    38   18   37 1    
    39   18   88 1    
    40   19   20 am   BACKBONE|DICT|INTERRES
    41   19   89 1    
    42   20   21 2    
    43   20   22 1    
    44   22   23 1    
    45   22   24 1    
    46   22   90 1    
    47   23   91 1    
    48   23   92 1    
    49   23   93 1    
    50   24   25 am   BACKBONE|DICT|INTERRES
    51   24   94 1    
    52   25   26 2    
    53   25   27 1    
    54   27   28 1    
    55   27   29 1    
    56   27   95 1    
    57   28   96 1    
    58   28   97 1    
    59   28   98 1    
    60   29   30 am   BACKBONE|DICT|INTERRES
    61   29   99 1    
    62   30   31 2    
    63   30   32 1    
    64   32   33 1    
    65   32   34 1    
    66   32  100 1    
    67   33  101 1    
    68   33  102 1    
    69   33  103 1    
    70   34   35 am   BACKBONE|DICT|INTERRES
    71   34  104 1    
    72   35   36 2    
    73   37   38 2    
    74   37   39 am   BACKBONE|DICT|INTERRES
    75   39   40 1    
    76   39  105 1    
    77   40   41 1    
    78   40   42 1    
    79   40  106 1    
    80   41  107 1    
    81   41  108 1    
    82   41  109 1    
    83   42   43 2    
    84   42   44 am   BACKBONE|DICT|INTERRES
    85   44   45 1    
    86   44  110 1    
    87   45   46 1    
    88   45   47 1    
    89   45  111 1    
    90   46  112 1    
    91   46  113 1    
    92   46  114 1    
    93   47   48 2    
    94   47   49 am   BACKBONE|DICT|INTERRES
    95   49   50 1    
    96   49  115 1    
    97   50   51 1    
    98   50   52 1    
    99   50  116 1    
   100   51  117 1    
   101   51  118 1    
   102   51  119 1    
   103   52   53 2    
   104   52   54 am   BACKBONE|DICT|INTERRES
   105   54   55 1    
   106   54  120 1    
   107   55   56 1    
   108   55   57 1    
   109   55  121 1    
   110   56  122 1    
   111   56  123 1    
   112   56  124 1    
   113   57   58 2    
   114   57   59 am   BACKBONE|DICT|INTERRES
   115   59   60 1    
   116   59  125 1    
   117   60   61 1    
   118   60   62 1    
   119   60  126 1    
   120   61  127 1    
   121   61  128 1    
   122   61  129 1    
   123   62   63 2    
   124   62   64 am   BACKBONE|DICT|INTERRES
   125   64   65 1    
   126   64  130 1    
   127   65   66 1    
   128   65   69 1    
   129   65  131 1    
   130   66   67 am   BACKBONE|DICT|INTERRES
   131   66   68 2    
   132   67  132 1    
   133   67  133 1    
   134   69   70 1    
   135   69  134 1    
   136   69  135 1    
   137   70   71 1    
   138   71  136 1    
   139   71  137 1    
@<TRIPOS>SUBSTRUCTURE
     1 UNK         1 GROUP             0       ****    0 ROOT    
