@<TRIPOS>MOLECULE
3R137
137   139    1
SMALL
USER_CHARGES


@<TRIPOS>ATOM
      1 CA         24.4147   -5.2242   -3.8717 C.3       0 UNK        -0.2020 
      2 C          24.8649   -5.0062   -2.4356 C.2       0 UNK         0.4855 
      3 O          24.3279   -5.6465   -1.5314 O.2       0 UNK        -0.5197 
      4 N          25.8494   -4.1245   -2.2139 N.am      1 UNK        -0.4892 
      5 CA         26.4153   -3.8504   -0.8838 C.3       1 UNK         0.0835 
      6 C6         27.9315   -3.5448   -0.9481 C.3       12 UNK        -0.0855 
      7 S7         28.3668   -2.0661   -1.9265 S.3       12 UNK        -0.2931 
      8 C8         30.1819   -2.2464   -2.0130 C.3       12 UNK         0.0378 
      9 C9         30.6831   -2.7565   -3.3625 C.ar      12 UNK        -0.0802 
     10 C10        31.8240   -2.1838   -3.9345 C.ar      12 UNK        -0.0944 
     11 C11        32.3288   -2.6441   -5.1594 C.ar      12 UNK        -0.0787 
     12 C12        31.6649   -3.6903   -5.8103 C.ar      12 UNK        -0.0862 
     13 C13        30.5310   -4.2833   -5.2463 C.ar      12 UNK        -0.0733 
     14 C14        30.0498   -3.8144   -4.0217 C.ar      12 UNK        -0.0832 
     15 C15        29.8570   -5.4673   -5.9288 C.3       12 UNK         0.0240 
     16 S16        28.7946   -4.9754   -7.3237 S.3       12 UNK        -0.2522 
     17 C17        27.4271   -4.1001   -6.4869 C.3       12 UNK        -0.0967 
     18 CA         27.0234   -2.7946   -7.2211 C.3       5 UNK         0.0660 
     19 N          25.7155   -2.2546   -6.8360 N.am      5 UNK        -0.4015 
     20 C          25.3092   -1.9257   -5.6052 C.2       4 UNK         0.4946 
     21 O          25.9344   -2.1916   -4.5735 O.2       4 UNK        -0.5353 
     22 CA         23.9905   -1.1397   -5.5179 C.3       4 UNK         0.0277 
     23 CB         22.8166   -2.0835   -5.2169 C.3       4 UNK        -0.1981 
     24 N          24.0554   -0.1166   -4.4764 N.am      4 UNK        -0.4209 
     25 C          24.9529    0.8740   -4.3998 C.2       3 UNK         0.4942 
     26 O          25.7291    1.1617   -5.3119 O.2       3 UNK        -0.5208 
     27 CA         25.0428    1.6372   -3.0644 C.3       3 UNK         0.0250 
     28 CB         24.0761    2.8371   -3.0380 C.3       3 UNK        -0.1990 
     29 N          24.8977    0.7762   -1.8752 N.am      3 UNK        -0.4232 
     30 C          23.8099    0.1194   -1.4434 C.2       2 UNK         0.4993 
     31 O          22.7069    0.1805   -1.9893 O.2       2 UNK        -0.5286 
     32 CA         24.0336   -0.8660   -0.2935 C.3       2 UNK         0.0209 
     33 CB         22.7195   -1.3904    0.3208 C.3       2 UNK        -0.1931 
     34 N          24.8182   -1.9780   -0.8234 N.am      2 UNK        -0.4546 
     35 C          25.6377   -2.7612   -0.1135 C.2       1 UNK         0.5154 
     36 O          25.7967   -2.6506    1.1036 O.2       1 UNK        -0.5181 
     37 C          28.1164   -1.7070   -7.1838 C.2       5 UNK         0.5014 
     38 O          28.7603   -1.4899   -8.2099 O.2       5 UNK        -0.5248 
     39 N          28.2728   -1.0027   -6.0523 N.am      6 UNK        -0.4434 
     40 CA         29.2592    0.0678   -5.8688 C.3       6 UNK         0.0363 
     41 CB         29.1922    0.6297   -4.4419 C.3       6 UNK        -0.1936 
     42 C          29.1368    1.2075   -6.8914 C.2       6 UNK         0.5081 
     43 O          30.1423    1.5971   -7.4858 O.2       6 UNK        -0.5248 
     44 N          27.9089    1.6984   -7.1037 N.am      7 UNK        -0.4718 
     45 CA         27.5984    2.7465   -8.0794 C.3       7 UNK         0.0273 
     46 CB         26.1674    3.2541   -7.8424 C.3       7 UNK        -0.1935 
     47 C          27.7751    2.2944   -9.5396 C.2       7 UNK         0.5018 
     48 O          28.1313    3.1175  -10.3826 O.2       7 UNK        -0.5186 
     49 N          27.5370    1.0033   -9.8110 N.am      8 UNK        -0.4240 
     50 CA         27.7104    0.3885  -11.1294 C.3       8 UNK         0.0235 
     51 CB         26.9161   -0.9264  -11.2003 C.3       8 UNK        -0.2000 
     52 C          29.1926    0.1548  -11.4600 C.2       8 UNK         0.4941 
     53 O          29.6163    0.4349  -12.5816 O.2       8 UNK        -0.5273 
     54 N          29.9554   -0.3319  -10.4718 N.am      9 UNK        -0.4262 
     55 CA         31.3995   -0.5583  -10.5553 C.3       9 UNK         0.0264 
     56 CB         31.8203   -1.4789   -9.3966 C.3       9 UNK        -0.1955 
     57 C          32.2315    0.7371  -10.5287 C.2       9 UNK         0.5031 
     58 O          33.4023    0.6938  -10.9091 O.2       9 UNK        -0.5390 
     59 N          31.6310    1.8410  -10.0553 N.am      10 UNK        -0.4204 
     60 CA         32.2529    3.1334   -9.7386 C.3       10 UNK         0.0237 
     61 CB         32.8099    3.8227  -11.0026 C.3       10 UNK        -0.1985 
     62 C          33.2896    2.9806   -8.6090 C.2       10 UNK         0.4970 
     63 O          34.4211    3.4551   -8.7242 O.2       10 UNK        -0.4914 
     64 N          32.8731    2.2770   -7.5498 N.am      11 UNK        -0.4285 
     65 CA         33.6968    1.8837   -6.3993 C.3       11 UNK         0.1007 
     66 C          34.0555    3.0413   -5.4215 C.2       11 UNK         0.5703 
     67 N          33.4100    4.1995   -5.4995 N.am      11 UNK        -0.7361 
     68 O          34.9427    2.8917   -4.5851 O.2       11 UNK        -0.4986 
     69 C69        33.0487    0.6781   -5.6633 C.3       12 UNK        -0.0947 
     70 S70        34.2663   -0.5416   -5.0728 S.3       12 UNK        -0.2240 
     71 C71        33.6098   -2.0897   -5.7944 C.3       12 UNK         0.0194 
     72 H72        24.4798   -6.2818   -4.1255 H         1 UNK         0.0906 
     73 H73        23.3790   -4.9107   -3.9951 H         1 UNK         0.0906 
     74 H74        25.0298   -4.6749   -4.5805 H         1 UNK         0.0906 
     75 H75        26.2152   -3.5637   -2.9789 H         1 UNK         0.3140 
     76 H76        26.3160   -4.7544   -0.2781 H         1 UNK         0.1085 
     77 H77        28.3331   -3.4201    0.0596 H         1 UNK         0.0836 
     78 H78        28.4526   -4.4087   -1.3624 H         1 UNK         0.0836 
     79 H79        30.6192   -1.2707   -1.7957 H         1 UNK         0.0731 
     80 H80        30.5346   -2.9150   -1.2267 H         1 UNK         0.0731 
     81 H81        32.3240   -1.3869   -3.4040 H         1 UNK         0.1312 
     82 H82        32.0450   -4.0633   -6.7519 H         1 UNK         0.1406 
     83 H83        29.1819   -4.2801   -3.5780 H         1 UNK         0.1631 
     84 H84        29.2653   -6.0410   -5.2137 H         1 UNK         0.0717 
     85 H85        30.6231   -6.1496   -6.3000 H         1 UNK         0.0717 
     86 H86        26.5779   -4.7837   -6.4602 H         1 UNK         0.0934 
     87 H87        27.6820   -3.8994   -5.4471 H         1 UNK         0.0934 
     88 H88        26.8987   -3.0561   -8.2736 H         1 UNK         0.0739 
     89 H89        25.1200   -2.0008   -7.6118 H         1 UNK         0.3093 
     90 H90        23.8101   -0.6350   -6.4692 H         1 UNK         0.0818 
     91 H91        21.8659   -1.5504   -5.2402 H         1 UNK         0.0819 
     92 H92        22.7551   -2.8870   -5.9522 H         1 UNK         0.0819 
     93 H93        22.9145   -2.5431   -4.2329 H         1 UNK         0.0819 
     94 H94        23.4410   -0.2322   -3.6755 H         1 UNK         0.3041 
     95 H95        26.0563    2.0380   -3.0104 H         1 UNK         0.0784 
     96 H96        24.2847    3.5183   -3.8640 H         1 UNK         0.0793 
     97 H97        23.0344    2.5292   -3.1313 H         1 UNK         0.0793 
     98 H98        24.1767    3.4069   -2.1144 H         1 UNK         0.0793 
     99 H99        25.7643    0.5918   -1.3874 H         1 UNK         0.3024 
    100 H100       24.6004   -0.3474    0.4836 H         1 UNK         0.1171 
    101 H101       22.0986   -0.5667    0.6752 H         1 UNK         0.0786 
    102 H102       22.9121   -2.0407    1.1742 H         1 UNK         0.0786 
    103 H103       22.1325   -1.9563   -0.4036 H         1 UNK         0.0786 
    104 H104       24.7726   -2.1251   -1.8231 H         1 UNK         0.2977 
    105 H105       27.6772   -1.2307   -5.2631 H         1 UNK         0.3127 
    106 H106       30.2379   -0.3917   -6.0056 H         1 UNK         0.0770 
    107 H107       28.1896    0.9683   -4.1821 H         1 UNK         0.0814 
    108 H108       29.8669    1.4783   -4.3205 H         1 UNK         0.0814 
    109 H109       29.4934   -0.1178   -3.7140 H         1 UNK         0.0814 
    110 H110       27.1388    1.3632   -6.5263 H         1 UNK         0.2983 
    111 H111       28.2878    3.5767   -7.9100 H         1 UNK         0.0947 
    112 H112       25.9126    4.0510   -8.5425 H         1 UNK         0.0806 
    113 H113       26.0526    3.6575   -6.8361 H         1 UNK         0.0806 
    114 H114       25.4314    2.4588   -7.9677 H         1 UNK         0.0806 
    115 H115       27.3008    0.3918   -9.0433 H         1 UNK         0.3000 
    116 H116       27.3043    1.0682  -11.8820 H         1 UNK         0.0850 
    117 H117       27.0012   -1.3769  -12.1901 H         1 UNK         0.0810 
    118 H118       25.8554   -0.7601  -11.0117 H         1 UNK         0.0810 
    119 H119       27.2753   -1.6608  -10.4791 H         1 UNK         0.0810 
    120 H120       29.5075   -0.6073   -9.5976 H         1 UNK         0.3040 
    121 H121       31.6135   -1.0682  -11.4969 H         1 UNK         0.0766 
    122 H122       32.8892   -1.6934   -9.4319 H         1 UNK         0.0812 
    123 H123       31.2955   -2.4338   -9.4367 H         1 UNK         0.0812 
    124 H124       31.6076   -1.0251   -8.4276 H         1 UNK         0.0812 
    125 H125       30.6854    1.7268   -9.7128 H         1 UNK         0.3205 
    126 H126       31.4567    3.7658   -9.3426 H         1 UNK         0.0754 
    127 H127       33.1568    4.8310  -10.7736 H         1 UNK         0.0769 
    128 H128       32.0450    3.9099  -11.7743 H         1 UNK         0.0769 
    129 H129       33.6545    3.2794  -11.4273 H         1 UNK         0.0769 
    130 H130       31.9025    1.9679   -7.5299 H         1 UNK         0.2981 
    131 H131       34.6470    1.5508   -6.8215 H         1 UNK         0.0541 
    132 H132       32.6836    4.3336   -6.1838 H         1 UNK         0.3459 
    133 H133       33.6543    4.9449   -4.8668 H         1 UNK         0.3459 
    134 H134       32.3789    0.1524   -6.3426 H         1 UNK         0.0612 
    135 H135       32.4226    0.9980   -4.8283 H         1 UNK         0.0612 
    136 H136       33.4551   -1.9379   -6.8633 H         1 UNK         0.0624 
    137 H137       34.3852   -2.8514   -5.7046 H         1 UNK         0.0624 
@<TRIPOS>BOND
     1    1    2 1    
     2    1   72 1    
     3    1   73 1    
     4    1   74 1    
     5    2    3 2    
     6    2    4 am   BACKBONE|DICT|INTERRES
     7    4    5 1    
     8    4   75 1    
     9    5    6 1    
    10    5   35 1    
    11    5   76 1    
    12    6    7 1    
    13    6   77 1    
    14    6   78 1    
    15    7    8 1    
    16    8    9 1    
    17    8   79 1    
    18    8   80 1    
    19    9   10 ar   
    20    9   14 ar   
    21   10   11 ar   
    22   10   81 1    
    23   11   12 ar   
    24   11   71 1    
    25   12   13 ar   
    26   12   82 1    
    27   13   14 ar   
    28   13   15 1    
    29   14   83 1    
    30   15   16 1    
    31   15   84 1    
    32   15   85 1    
    33   16   17 1    
    34   17   18 1    
    35   17   86 1    
    36   17   87 1    
    37   18   19 1    
    38   18   37 1    
    39   18   88 1    
    40   19   20 am   BACKBONE|DICT|INTERRES
    41   19   89 1    
    42   20   21 2    
    43   20   22 1    
    44   22   23 1    
    45   22   24 1    
    46   22   90 1    
    47   23   91 1    
    48   23   92 1    
    49   23   93 1    
    50   24   25 am   BACKBONE|DICT|INTERRES
    51   24   94 1    
    52   25   26 2    
    53   25   27 1    
    54   27   28 1    
    55   27   29 1    
    56   27   95 1    
    57   28   96 1    
    58   28   97 1    
    59   28   98 1    
    60   29   30 am   BACKBONE|DICT|INTERRES
    61   29   99 1    
    62   30   31 2    
    63   30   32 1    
    64   32   33 1    
    65   32   34 1    
    66   32  100 1    
    67   33  101 1    
    68   33  102 1    
    69   33  103 1    
    70   34   35 am   BACKBONE|DICT|INTERRES
    71   34  104 1    
    72   35   36 2    
    73   37   38 2    
    74   37   39 am   BACKBONE|DICT|INTERRES
    75   39   40 1    
    76   39  105 1    
    77   40   41 1    
    78   40   42 1    
    79   40  106 1    
    80   41  107 1    
    81   41  108 1    
    82   41  109 1    
    83   42   43 2    
    84   42   44 am   BACKBONE|DICT|INTERRES
    85   44   45 1    
    86   44  110 1    
    87   45   46 1    
    88   45   47 1    
    89   45  111 1    
    90   46  112 1    
    91   46  113 1    
    92   46  114 1    
    93   47   48 2    
    94   47   49 am   BACKBONE|DICT|INTERRES
    95   49   50 1    
    96   49  115 1    
    97   50   51 1    
    98   50   52 1    
    99   50  116 1    
   100   51  117 1    
   101   51  118 1    
   102   51  119 1    
   103   52   53 2    
   104   52   54 am   BACKBONE|DICT|INTERRES
   105   54   55 1    
   106   54  120 1    
   107   55   56 1    
   108   55   57 1    
   109   55  121 1    
   110   56  122 1    
   111   56  123 1    
   112   56  124 1    
   113   57   58 2    
   114   57   59 am   BACKBONE|DICT|INTERRES
   115   59   60 1    
   116   59  125 1    
   117   60   61 1    
   118   60   62 1    
   119   60  126 1    
   120   61  127 1    
   121   61  128 1    
   122   61  129 1    
   123   62   63 2    
   124   62   64 am   BACKBONE|DICT|INTERRES
   125   64   65 1    
   126   64  130 1    
   127   65   66 1    
   128   65   69 1    
   129   65  131 1    
   130   66   67 am   BACKBONE|DICT|INTERRES
   131   66   68 2    
   132   67  132 1    
   133   67  133 1    
   134   69   70 1    
   135   69  134 1    
   136   69  135 1    
   137   70   71 1    
   138   71  136 1    
   139   71  137 1    
@<TRIPOS>SUBSTRUCTURE
     1 UNK         1 GROUP             0       ****    0 ROOT    
