@<TRIPOS>MOLECULE
3R137
137   139    1
SMALL
USER_CHARGES


@<TRIPOS>ATOM
      1 CA         28.3593   -1.3026    2.5993 C.3       0 UNK        -0.2020 
      2 C          28.6066   -2.4192    1.5960 C.2       0 UNK         0.4855 
      3 O          28.6369   -3.5876    1.9824 O.2       0 UNK        -0.5197 
      4 N          28.7716   -2.0631    0.3134 N.am      1 UNK        -0.4892 
      5 CA         29.0620   -2.9615   -0.8196 C.3       1 UNK         0.0835 
      6 C6         30.4273   -3.7002   -0.6950 C.3       12 UNK        -0.0855 
      7 S7         31.8307   -2.5443   -0.5041 S.3       12 UNK        -0.2931 
      8 C8         32.5909   -2.5861   -2.1617 C.3       12 UNK         0.0378 
      9 C9         31.6079   -2.2041   -3.2604 C.ar      12 UNK        -0.0802 
     10 C10        31.2540   -3.1349   -4.2421 C.ar      12 UNK        -0.0944 
     11 C11        30.3436   -2.7971   -5.2478 C.ar      12 UNK        -0.0787 
     12 C12        29.7744   -1.5215   -5.2545 C.ar      12 UNK        -0.0862 
     13 C13        30.1123   -0.5847   -4.2729 C.ar      12 UNK        -0.0733 
     14 C14        31.0413   -0.9261   -3.2868 C.ar      12 UNK        -0.0832 
     15 C15        29.4811    0.7977   -4.2906 C.3       12 UNK         0.0240 
     16 S16        27.7219    0.7376   -3.8264 S.3       12 UNK        -0.2522 
     17 C17        27.1353    2.2584   -4.6445 C.3       12 UNK        -0.0967 
     18 CA         26.5789    1.9550   -6.0582 C.3       5 UNK         0.0660 
     19 N          25.3304    1.1796   -5.9989 N.am      5 UNK        -0.4015 
     20 C          24.6675    0.6524   -7.0366 C.2       4 UNK         0.4946 
     21 O          24.9792    0.8410   -8.2139 O.2       4 UNK        -0.5353 
     22 CA         23.4729   -0.2561   -6.6973 C.3       4 UNK         0.0277 
     23 CB         22.5690   -0.5081   -7.9190 C.3       4 UNK        -0.1981 
     24 N          23.9374   -1.5419   -6.1740 N.am      4 UNK        -0.4209 
     25 C          24.4185   -1.7368   -4.9404 C.2       3 UNK         0.4942 
     26 O          24.4590   -0.8571   -4.0745 O.2       3 UNK        -0.5208 
     27 CA         24.9746   -3.1334   -4.6431 C.3       3 UNK         0.0250 
     28 CB         26.3059   -3.3621   -5.3809 C.3       3 UNK        -0.1990 
     29 N          25.2004   -3.2563   -3.2073 N.am      3 UNK        -0.4232 
     30 C          25.0646   -4.3725   -2.4840 C.2       2 UNK         0.4993 
     31 O          24.7155   -5.4575   -2.9542 O.2       2 UNK        -0.5286 
     32 CA         25.3922   -4.2391   -0.9837 C.3       2 UNK         0.0209 
     33 CB         25.3574   -5.5869   -0.2306 C.3       2 UNK        -0.1931 
     34 N          26.6661   -3.5412   -0.7522 N.am      2 UNK        -0.4546 
     35 C          27.8922   -3.9188   -1.1553 C.2       1 UNK         0.5154 
     36 O          28.1156   -4.9572   -1.7800 O.2       1 UNK        -0.5181 
     37 C          26.5315    3.2329   -6.9260 C.2       5 UNK         0.5014 
     38 O          27.5918    3.7421   -7.2915 O.2       5 UNK        -0.5248 
     39 N          25.3300    3.7189   -7.2695 N.am      6 UNK        -0.4434 
     40 CA         25.1181    4.7832   -8.2542 C.3       6 UNK         0.0363 
     41 CB         23.6536    5.2461   -8.1913 C.3       6 UNK        -0.1936 
     42 C          25.4873    4.3623   -9.6919 C.2       6 UNK         0.5081 
     43 O          25.8648    5.2235  -10.4869 O.2       6 UNK        -0.5248 
     44 N          25.3732    3.0625   -9.9983 N.am      7 UNK        -0.4718 
     45 CA         25.7481    2.4613  -11.2790 C.3       7 UNK         0.0273 
     46 CB         24.5802    1.6075  -11.8007 C.3       7 UNK        -0.1935 
     47 C          27.0148    1.6082  -11.1248 C.2       7 UNK         0.5018 
     48 O          27.9373    1.7365  -11.9314 O.2       7 UNK        -0.5186 
     49 N          27.0547    0.7681  -10.0819 N.am      8 UNK        -0.4240 
     50 CA         28.1858   -0.0851   -9.7193 C.3       8 UNK         0.0235 
     51 CB         27.6576   -1.2815   -8.9037 C.3       8 UNK        -0.2000 
     52 C          29.2320    0.7330   -8.9458 C.2       8 UNK         0.4941 
     53 O          29.3697    0.5638   -7.7357 O.2       8 UNK        -0.5273 
     54 N          29.9118    1.6498   -9.6436 N.am      9 UNK        -0.4262 
     55 CA         30.8261    2.6526   -9.0890 C.3       9 UNK         0.0264 
     56 CB         31.1108    3.7064  -10.1758 C.3       9 UNK        -0.1955 
     57 C          32.1192    2.0641   -8.4815 C.2       9 UNK         0.5031 
     58 O          33.1996    2.2632   -9.0398 O.2       9 UNK        -0.5390 
     59 N          31.9670    1.3792   -7.3392 N.am      10 UNK        -0.4204 
     60 CA         32.9807    0.7448   -6.4892 C.3       10 UNK         0.0237 
     61 CB         33.9974    1.7748   -5.9549 C.3       10 UNK        -0.1985 
     62 C          33.6586   -0.4421   -7.1915 C.2       10 UNK         0.4970 
     63 O          34.6453   -0.2590   -7.9067 O.2       10 UNK        -0.4914 
     64 N          33.1080   -1.6425   -6.9730 N.am      11 UNK        -0.4285 
     65 CA         33.5748   -2.9022   -7.5786 C.3       11 UNK         0.1007 
     66 C          34.9849   -3.3788   -7.1203 C.2       11 UNK         0.5703 
     67 N          35.5323   -2.8765   -6.0194 N.am      11 UNK        -0.7361 
     68 O          35.5916   -4.2202   -7.7789 O.2       11 UNK        -0.4986 
     69 C69        32.5443   -4.0516   -7.4159 C.3       12 UNK        -0.0947 
     70 S70        30.8429   -3.5795   -7.8772 S.3       12 UNK        -0.2240 
     71 C71        29.9489   -3.8173   -6.3080 C.3       12 UNK         0.0194 
     72 H72        29.1410   -1.3024    3.3586 H         1 UNK         0.0906 
     73 H73        28.3480   -0.3212    2.1255 H         1 UNK         0.0906 
     74 H74        27.4012   -1.4501    3.0971 H         1 UNK         0.0906 
     75 H75        28.7377   -1.0812    0.0746 H         1 UNK         0.3140 
     76 H76        29.1294   -2.3134   -1.6945 H         1 UNK         0.1085 
     77 H77        30.6111   -4.3295   -1.5676 H         1 UNK         0.0836 
     78 H78        30.4203   -4.3781    0.1596 H         1 UNK         0.0836 
     79 H79        33.0047   -3.5806   -2.3363 H         1 UNK         0.0731 
     80 H80        33.4351   -1.8955   -2.1819 H         1 UNK         0.0731 
     81 H81        31.6816   -4.1278   -4.2179 H         1 UNK         0.1312 
     82 H82        29.0560   -1.2597   -6.0189 H         1 UNK         0.1406 
     83 H83        31.3097   -0.2080   -2.5234 H         1 UNK         0.1631 
     84 H84        29.5874    1.2234   -5.2873 H         1 UNK         0.0717 
     85 H85        30.0034    1.4758   -3.6142 H         1 UNK         0.0717 
     86 H86        26.3701    2.7245   -4.0214 H         1 UNK         0.0934 
     87 H87        27.9624    2.9710   -4.6824 H         1 UNK         0.0934 
     88 H88        27.2941    1.3062   -6.5614 H         1 UNK         0.0739 
     89 H89        25.0410    0.8841   -5.0722 H         1 UNK         0.3093 
     90 H90        22.8739    0.2464   -5.9346 H         1 UNK         0.0818 
     91 H91        23.0987   -1.0315   -8.7162 H         1 UNK         0.0819 
     92 H92        21.6953   -1.1020   -7.6505 H         1 UNK         0.0819 
     93 H93        22.2048    0.4324   -8.3349 H         1 UNK         0.0819 
     94 H94        23.9637   -2.3083   -6.8315 H         1 UNK         0.3041 
     95 H95        24.2372   -3.8704   -4.9689 H         1 UNK         0.0784 
     96 H96        26.1813   -3.3016   -6.4626 H         1 UNK         0.0793 
     97 H97        27.0502   -2.6181   -5.0939 H         1 UNK         0.0793 
     98 H98        26.7175   -4.3466   -5.1573 H         1 UNK         0.0793 
     99 H99        25.4178   -2.3820   -2.7457 H         1 UNK         0.3024 
    100 H100       24.6084   -3.6094   -0.5589 H         1 UNK         0.1171 
    101 H101       25.5757   -5.4542    0.8292 H         1 UNK         0.0786 
    102 H102       24.3720   -6.0488   -0.3031 H         1 UNK         0.0786 
    103 H103       26.0787   -6.2981   -0.6344 H         1 UNK         0.0786 
    104 H104       26.6040   -2.6703   -0.2433 H         1 UNK         0.2977 
    105 H105       24.5076    3.2499   -6.9198 H         1 UNK         0.3127 
    106 H106       25.7567    5.6271   -7.9839 H         1 UNK         0.0770 
    107 H107       22.9632    4.4395   -8.4415 H         1 UNK         0.0814 
    108 H108       23.4723    6.0593   -8.8956 H         1 UNK         0.0814 
    109 H109       23.3955    5.6162   -7.1990 H         1 UNK         0.0814 
    110 H110       25.0897    2.4135   -9.2689 H         1 UNK         0.2983 
    111 H111       25.9593    3.2359  -12.0197 H         1 UNK         0.0947 
    112 H112       24.3063    0.8188  -11.0982 H         1 UNK         0.0806 
    113 H113       24.8376    1.1293  -12.7467 H         1 UNK         0.0806 
    114 H114       23.6946    2.2181  -11.9769 H         1 UNK         0.0806 
    115 H115       26.2624    0.7513   -9.4413 H         1 UNK         0.3000 
    116 H116       28.6573   -0.4724  -10.6250 H         1 UNK         0.0850 
    117 H117       26.9327   -1.8620   -9.4741 H         1 UNK         0.0810 
    118 H118       27.1765   -0.9633   -7.9781 H         1 UNK         0.0810 
    119 H119       28.4702   -1.9543   -8.6315 H         1 UNK         0.0810 
    120 H120       29.6948    1.7337  -10.6297 H         1 UNK         0.3040 
    121 H121       30.2995    3.1608   -8.2778 H         1 UNK         0.0766 
    122 H122       31.7651    4.4926   -9.7966 H         1 UNK         0.0812 
    123 H123       30.1918    4.1872  -10.5121 H         1 UNK         0.0812 
    124 H124       31.5985    3.2667  -11.0467 H         1 UNK         0.0812 
    125 H125       30.9995    1.1631   -7.1026 H         1 UNK         0.3205 
    126 H126       32.4470    0.3526   -5.6232 H         1 UNK         0.0754 
    127 H127       34.6994    1.3039   -5.2658 H         1 UNK         0.0769 
    128 H128       33.4984    2.5775   -5.4120 H         1 UNK         0.0769 
    129 H129       34.5850    2.2266   -6.7546 H         1 UNK         0.0769 
    130 H130       32.2889   -1.7190   -6.3863 H         1 UNK         0.2981 
    131 H131       33.6641   -2.7071   -8.6490 H         1 UNK         0.0541 
    132 H132       35.0436   -2.1849   -5.4752 H         1 UNK         0.3459 
    133 H133       36.4465   -3.1911   -5.7356 H         1 UNK         0.3459 
    134 H134       32.8272   -4.8967   -8.0461 H         1 UNK         0.0612 
    135 H135       32.5538   -4.4320   -6.3943 H         1 UNK         0.0612 
    136 H136       28.8811   -3.7371   -6.5103 H         1 UNK         0.0624 
    137 H137       30.1126   -4.8336   -5.9463 H         1 UNK         0.0624 
@<TRIPOS>BOND
     1    1    2 1    
     2    1   72 1    
     3    1   73 1    
     4    1   74 1    
     5    2    3 2    
     6    2    4 am   BACKBONE|DICT|INTERRES
     7    4    5 1    
     8    4   75 1    
     9    5    6 1    
    10    5   35 1    
    11    5   76 1    
    12    6    7 1    
    13    6   77 1    
    14    6   78 1    
    15    7    8 1    
    16    8    9 1    
    17    8   79 1    
    18    8   80 1    
    19    9   10 ar   
    20    9   14 ar   
    21   10   11 ar   
    22   10   81 1    
    23   11   12 ar   
    24   11   71 1    
    25   12   13 ar   
    26   12   82 1    
    27   13   14 ar   
    28   13   15 1    
    29   14   83 1    
    30   15   16 1    
    31   15   84 1    
    32   15   85 1    
    33   16   17 1    
    34   17   18 1    
    35   17   86 1    
    36   17   87 1    
    37   18   19 1    
    38   18   37 1    
    39   18   88 1    
    40   19   20 am   BACKBONE|DICT|INTERRES
    41   19   89 1    
    42   20   21 2    
    43   20   22 1    
    44   22   23 1    
    45   22   24 1    
    46   22   90 1    
    47   23   91 1    
    48   23   92 1    
    49   23   93 1    
    50   24   25 am   BACKBONE|DICT|INTERRES
    51   24   94 1    
    52   25   26 2    
    53   25   27 1    
    54   27   28 1    
    55   27   29 1    
    56   27   95 1    
    57   28   96 1    
    58   28   97 1    
    59   28   98 1    
    60   29   30 am   BACKBONE|DICT|INTERRES
    61   29   99 1    
    62   30   31 2    
    63   30   32 1    
    64   32   33 1    
    65   32   34 1    
    66   32  100 1    
    67   33  101 1    
    68   33  102 1    
    69   33  103 1    
    70   34   35 am   BACKBONE|DICT|INTERRES
    71   34  104 1    
    72   35   36 2    
    73   37   38 2    
    74   37   39 am   BACKBONE|DICT|INTERRES
    75   39   40 1    
    76   39  105 1    
    77   40   41 1    
    78   40   42 1    
    79   40  106 1    
    80   41  107 1    
    81   41  108 1    
    82   41  109 1    
    83   42   43 2    
    84   42   44 am   BACKBONE|DICT|INTERRES
    85   44   45 1    
    86   44  110 1    
    87   45   46 1    
    88   45   47 1    
    89   45  111 1    
    90   46  112 1    
    91   46  113 1    
    92   46  114 1    
    93   47   48 2    
    94   47   49 am   BACKBONE|DICT|INTERRES
    95   49   50 1    
    96   49  115 1    
    97   50   51 1    
    98   50   52 1    
    99   50  116 1    
   100   51  117 1    
   101   51  118 1    
   102   51  119 1    
   103   52   53 2    
   104   52   54 am   BACKBONE|DICT|INTERRES
   105   54   55 1    
   106   54  120 1    
   107   55   56 1    
   108   55   57 1    
   109   55  121 1    
   110   56  122 1    
   111   56  123 1    
   112   56  124 1    
   113   57   58 2    
   114   57   59 am   BACKBONE|DICT|INTERRES
   115   59   60 1    
   116   59  125 1    
   117   60   61 1    
   118   60   62 1    
   119   60  126 1    
   120   61  127 1    
   121   61  128 1    
   122   61  129 1    
   123   62   63 2    
   124   62   64 am   BACKBONE|DICT|INTERRES
   125   64   65 1    
   126   64  130 1    
   127   65   66 1    
   128   65   69 1    
   129   65  131 1    
   130   66   67 am   BACKBONE|DICT|INTERRES
   131   66   68 2    
   132   67  132 1    
   133   67  133 1    
   134   69   70 1    
   135   69  134 1    
   136   69  135 1    
   137   70   71 1    
   138   71  136 1    
   139   71  137 1    
@<TRIPOS>SUBSTRUCTURE
     1 UNK         1 GROUP             0       ****    0 ROOT    
