@<TRIPOS>MOLECULE
3R137
137   139    1
SMALL
USER_CHARGES


@<TRIPOS>ATOM
      1 CA         24.2283   -5.9222   -5.0261 C.3       0 UNK        -0.2020 
      2 C          24.6290   -5.2678   -3.7132 C.2       0 UNK         0.4855 
      3 O          23.7714   -4.7303   -3.0112 O.2       0 UNK        -0.5197 
      4 N          25.9279   -5.2966   -3.3859 N.am      1 UNK        -0.4892 
      5 CA         26.5490   -4.6653   -2.2148 C.3       1 UNK         0.0835 
      6 C6         28.0722   -4.9759   -2.1223 C.3       12 UNK        -0.0855 
      7 S7         28.9849   -4.8836   -3.7113 S.3       12 UNK        -0.2931 
      8 C8         30.6568   -4.3807   -3.1943 C.3       12 UNK         0.0378 
      9 C9         30.8919   -2.8817   -3.3392 C.ar      12 UNK        -0.0802 
     10 C10        31.5246   -2.3725   -4.4805 C.ar      12 UNK        -0.0944 
     11 C11        31.8182   -1.0081   -4.5817 C.ar      12 UNK        -0.0787 
     12 C12        31.4634   -0.1507   -3.5383 C.ar      12 UNK        -0.0862 
     13 C13        30.8013   -0.6398   -2.4090 C.ar      12 UNK        -0.0733 
     14 C14        30.5229   -2.0073   -2.3124 C.ar      12 UNK        -0.0832 
     15 C15        30.3920    0.3101   -1.2907 C.3       12 UNK         0.0240 
     16 S16        29.3010    1.6486   -1.8772 S.3       12 UNK        -0.2522 
     17 C17        27.9211    0.7098   -2.6127 C.3       12 UNK        -0.0967 
     18 CA         27.8861    0.8028   -4.1613 C.3       5 UNK         0.0660 
     19 N          27.1979   -0.3474   -4.7597 N.am      5 UNK        -0.4015 
     20 C          26.9576   -0.5664   -6.0625 C.2       4 UNK         0.4946 
     21 O          27.3295    0.1792   -6.9684 O.2       4 UNK        -0.5353 
     22 CA         26.0887   -1.7854   -6.4107 C.3       4 UNK         0.0277 
     23 CB         26.9061   -3.0843   -6.4040 C.3       4 UNK        -0.1981 
     24 N          24.9698   -1.9101   -5.4782 N.am      4 UNK        -0.4209 
     25 C          23.8359   -1.2005   -5.5592 C.2       3 UNK         0.4942 
     26 O          23.5675   -0.4419   -6.4904 O.2       3 UNK        -0.5208 
     27 CA         22.8385   -1.3420   -4.3960 C.3       3 UNK         0.0250 
     28 CB         21.7784   -2.4078   -4.7154 C.3       3 UNK        -0.1990 
     29 N          23.4898   -1.6594   -3.1211 N.am      3 UNK        -0.4232 
     30 C          24.2435   -0.7892   -2.4315 C.2       2 UNK         0.4993 
     31 O          24.4458    0.3715   -2.7915 O.2       2 UNK        -0.5286 
     32 CA         24.9334   -1.3143   -1.1572 C.3       2 UNK         0.0209 
     33 CB         24.0000   -1.1729    0.0553 C.3       2 UNK        -0.1931 
     34 N          25.3980   -2.7039   -1.2595 N.am      2 UNK        -0.4546 
     35 C          26.2569   -3.1527   -2.1861 C.2       1 UNK         0.5154 
     36 O          26.7566   -2.4274   -3.0429 O.2       1 UNK        -0.5181 
     37 C          27.2924    2.1503   -4.6138 C.2       5 UNK         0.5014 
     38 O          28.0495    3.0632   -4.9434 O.2       5 UNK        -0.5248 
     39 N          25.9549    2.2277   -4.6876 N.am      6 UNK        -0.4434 
     40 CA         25.1962    3.3779   -5.1910 C.3       6 UNK         0.0363 
     41 CB         23.6943    3.0780   -5.0628 C.3       6 UNK        -0.1936 
     42 C          25.5381    3.7964   -6.6370 C.2       6 UNK         0.5081 
     43 O          25.3671    4.9684   -6.9733 O.2       6 UNK        -0.5248 
     44 N          26.0231    2.8529   -7.4554 N.am      7 UNK        -0.4718 
     45 CA         26.4999    3.0819   -8.8225 C.3       7 UNK         0.0273 
     46 CB         25.8385    2.0371   -9.7390 C.3       7 UNK        -0.1935 
     47 C          28.0355    2.9908   -8.9300 C.2       7 UNK         0.5018 
     48 O          28.5645    3.1616  -10.0290 O.2       7 UNK        -0.5186 
     49 N          28.7159    2.6852   -7.8130 N.am      8 UNK        -0.4240 
     50 CA         30.1334    2.3228   -7.6815 C.3       8 UNK         0.0235 
     51 CB         31.0384    3.5447   -7.9405 C.3       8 UNK        -0.2000 
     52 C          30.5373    1.0932   -8.5244 C.2       8 UNK         0.4941 
     53 O          31.6942    0.9924   -8.9365 O.2       8 UNK        -0.5273 
     54 N          29.5866    0.1818   -8.7706 N.am      9 UNK        -0.4262 
     55 CA         29.7466   -0.9959   -9.6218 C.3       9 UNK         0.0264 
     56 CB         28.3533   -1.5389   -9.9823 C.3       9 UNK        -0.1955 
     57 C          30.5963   -2.0705   -8.9125 C.2       9 UNK         0.5031 
     58 O          30.1358   -2.5988   -7.9029 O.2       9 UNK        -0.5390 
     59 N          31.8008   -2.4285   -9.3760 N.am      10 UNK        -0.4204 
     60 CA         32.6066   -1.8416  -10.4470 C.3       10 UNK         0.0237 
     61 CB         32.6227   -2.7933  -11.6575 C.3       10 UNK        -0.1985 
     62 C          33.9988   -1.5699   -9.8652 C.2       10 UNK         0.4970 
     63 O          34.9680   -2.2467  -10.2131 O.2       10 UNK        -0.4914 
     64 N          34.0439   -0.6092   -8.9386 N.am      11 UNK        -0.4285 
     65 CA         35.2571   -0.1376   -8.2639 C.3       11 UNK         0.1007 
     66 C          36.1165    0.7689   -9.1871 C.2       11 UNK         0.5703 
     67 N          37.4233    0.8119   -8.9654 N.am      11 UNK        -0.7361 
     68 O          35.6141    1.4550  -10.0761 O.2       11 UNK        -0.4986 
     69 C69        34.9032    0.5837   -6.9379 C.3       12 UNK        -0.0947 
     70 S70        34.3262   -0.5684   -5.6450 S.3       12 UNK        -0.2240 
     71 C71        32.5202   -0.4488   -5.8094 C.3       12 UNK         0.0194 
     72 H72        23.4365   -6.6510   -4.8555 H         1 UNK         0.0906 
     73 H73        23.8565   -5.1706   -5.7219 H         1 UNK         0.0906 
     74 H74        25.0657   -6.4363   -5.4974 H         1 UNK         0.0906 
     75 H75        26.5908   -5.7181   -4.0222 H         1 UNK         0.3140 
     76 H76        26.0768   -5.1048   -1.3336 H         1 UNK         0.1085 
     77 H77        28.2013   -5.9916   -1.7452 H         1 UNK         0.0836 
     78 H78        28.5512   -4.3335   -1.3814 H         1 UNK         0.0836 
     79 H79        31.3797   -4.9238   -3.8049 H         1 UNK         0.0731 
     80 H80        30.8436   -4.6959   -2.1666 H         1 UNK         0.0731 
     81 H81        31.8048   -3.0395   -5.2845 H         1 UNK         0.1312 
     82 H82        31.6892    0.9047   -3.6092 H         1 UNK         0.1406 
     83 H83        30.0269   -2.3949   -1.4336 H         1 UNK         0.1631 
     84 H84        31.2883    0.7507   -0.8523 H         1 UNK         0.0717 
     85 H85        29.8871   -0.2272   -0.4864 H         1 UNK         0.0717 
     86 H86        28.0176   -0.3287   -2.2977 H         1 UNK         0.0934 
     87 H87        26.9875    1.0610   -2.1704 H         1 UNK         0.0934 
     88 H88        28.9092    0.7549   -4.5386 H         1 UNK         0.0739 
     89 H89        26.9221   -1.0794   -4.1045 H         1 UNK         0.3093 
     90 H90        25.6953   -1.6406   -7.4194 H         1 UNK         0.0818 
     91 H91        27.7124   -3.0444   -7.1338 H         1 UNK         0.0819 
     92 H92        27.3650   -3.2670   -5.4344 H         1 UNK         0.0819 
     93 H93        26.2883   -3.9469   -6.6524 H         1 UNK         0.0819 
     94 H94        25.1349   -2.4625   -4.6479 H         1 UNK         0.3041 
     95 H95        22.3294   -0.3819   -4.2849 H         1 UNK         0.0784 
     96 H96        21.2482   -2.1649   -5.6374 H         1 UNK         0.0793 
     97 H97        22.2209   -3.3953   -4.8457 H         1 UNK         0.0793 
     98 H98        21.0333   -2.4764   -3.9226 H         1 UNK         0.0793 
     99 H99        23.4143   -2.6160   -2.7906 H         1 UNK         0.3024 
    100 H100       25.8106   -0.6892   -0.9821 H         1 UNK         0.1171 
    101 H101       24.5079   -1.4423    0.9815 H         1 UNK         0.0786 
    102 H102       23.6564   -0.1431    0.1649 H         1 UNK         0.0786 
    103 H103       23.1150   -1.8035   -0.0393 H         1 UNK         0.0786 
    104 H104       24.9870   -3.3654   -0.6159 H         1 UNK         0.2977 
    105 H105       25.4110    1.4479   -4.3318 H         1 UNK         0.3127 
    106 H106       25.4327    4.2265   -4.5460 H         1 UNK         0.0770 
    107 H107       23.4021    2.2231   -5.6737 H         1 UNK         0.0814 
    108 H108       23.0959    3.9306   -5.3868 H         1 UNK         0.0814 
    109 H109       23.4181    2.8620   -4.0304 H         1 UNK         0.0814 
    110 H110       26.1531    1.9123   -7.0972 H         1 UNK         0.2983 
    111 H111       26.2122    4.0765   -9.1695 H         1 UNK         0.0947 
    112 H112       26.1155    1.0207   -9.4554 H         1 UNK         0.0806 
    113 H113       26.1362    2.1792  -10.7787 H         1 UNK         0.0806 
    114 H114       24.7515    2.1100   -9.7020 H         1 UNK         0.0806 
    115 H115       28.1841    2.6195   -6.9523 H         1 UNK         0.3000 
    116 H116       30.2678    2.0276   -6.6400 H         1 UNK         0.0850 
    117 H117       32.0800    3.3173   -7.7102 H         1 UNK         0.0810 
    118 H118       30.7478    4.3913   -7.3186 H         1 UNK         0.0810 
    119 H119       30.9979    3.8624   -8.9827 H         1 UNK         0.0810 
    120 H120       28.6952    0.2778   -8.2891 H         1 UNK         0.3040 
    121 H121       30.1944   -0.6813  -10.5611 H         1 UNK         0.0766 
    122 H122       27.7811   -0.8076  -10.5535 H         1 UNK         0.0812 
    123 H123       27.7730   -1.7925   -9.0961 H         1 UNK         0.0812 
    124 H124       28.4310   -2.4394  -10.5928 H         1 UNK         0.0812 
    125 H125       32.2892   -3.1374   -8.8472 H         1 UNK         0.3205 
    126 H126       32.2375   -0.8726  -10.7770 H         1 UNK         0.0754 
    127 H127       33.2513   -2.3978  -12.4564 H         1 UNK         0.0769 
    128 H128       31.6215   -2.9259  -12.0677 H         1 UNK         0.0769 
    129 H129       33.0085   -3.7789  -11.3939 H         1 UNK         0.0769 
    130 H130       33.2058   -0.0510   -8.7885 H         1 UNK         0.2981 
    131 H131       35.8636   -1.0132   -8.0226 H         1 UNK         0.0541 
    132 H132       37.9989    1.4030   -9.5446 H         1 UNK         0.3459 
    133 H133       37.8466    0.2632   -8.2331 H         1 UNK         0.3459 
    134 H134       35.7824    1.0860   -6.5301 H         1 UNK         0.0612 
    135 H135       34.1620    1.3677   -7.1047 H         1 UNK         0.0612 
    136 H136       32.2032   -0.9877   -6.7014 H         1 UNK         0.0624 
    137 H137       32.2351    0.5935   -5.9555 H         1 UNK         0.0624 
@<TRIPOS>BOND
     1    1    2 1    
     2    1   72 1    
     3    1   73 1    
     4    1   74 1    
     5    2    3 2    
     6    2    4 am   BACKBONE|DICT|INTERRES
     7    4    5 1    
     8    4   75 1    
     9    5    6 1    
    10    5   35 1    
    11    5   76 1    
    12    6    7 1    
    13    6   77 1    
    14    6   78 1    
    15    7    8 1    
    16    8    9 1    
    17    8   79 1    
    18    8   80 1    
    19    9   10 ar   
    20    9   14 ar   
    21   10   11 ar   
    22   10   81 1    
    23   11   12 ar   
    24   11   71 1    
    25   12   13 ar   
    26   12   82 1    
    27   13   14 ar   
    28   13   15 1    
    29   14   83 1    
    30   15   16 1    
    31   15   84 1    
    32   15   85 1    
    33   16   17 1    
    34   17   18 1    
    35   17   86 1    
    36   17   87 1    
    37   18   19 1    
    38   18   37 1    
    39   18   88 1    
    40   19   20 am   BACKBONE|DICT|INTERRES
    41   19   89 1    
    42   20   21 2    
    43   20   22 1    
    44   22   23 1    
    45   22   24 1    
    46   22   90 1    
    47   23   91 1    
    48   23   92 1    
    49   23   93 1    
    50   24   25 am   BACKBONE|DICT|INTERRES
    51   24   94 1    
    52   25   26 2    
    53   25   27 1    
    54   27   28 1    
    55   27   29 1    
    56   27   95 1    
    57   28   96 1    
    58   28   97 1    
    59   28   98 1    
    60   29   30 am   BACKBONE|DICT|INTERRES
    61   29   99 1    
    62   30   31 2    
    63   30   32 1    
    64   32   33 1    
    65   32   34 1    
    66   32  100 1    
    67   33  101 1    
    68   33  102 1    
    69   33  103 1    
    70   34   35 am   BACKBONE|DICT|INTERRES
    71   34  104 1    
    72   35   36 2    
    73   37   38 2    
    74   37   39 am   BACKBONE|DICT|INTERRES
    75   39   40 1    
    76   39  105 1    
    77   40   41 1    
    78   40   42 1    
    79   40  106 1    
    80   41  107 1    
    81   41  108 1    
    82   41  109 1    
    83   42   43 2    
    84   42   44 am   BACKBONE|DICT|INTERRES
    85   44   45 1    
    86   44  110 1    
    87   45   46 1    
    88   45   47 1    
    89   45  111 1    
    90   46  112 1    
    91   46  113 1    
    92   46  114 1    
    93   47   48 2    
    94   47   49 am   BACKBONE|DICT|INTERRES
    95   49   50 1    
    96   49  115 1    
    97   50   51 1    
    98   50   52 1    
    99   50  116 1    
   100   51  117 1    
   101   51  118 1    
   102   51  119 1    
   103   52   53 2    
   104   52   54 am   BACKBONE|DICT|INTERRES
   105   54   55 1    
   106   54  120 1    
   107   55   56 1    
   108   55   57 1    
   109   55  121 1    
   110   56  122 1    
   111   56  123 1    
   112   56  124 1    
   113   57   58 2    
   114   57   59 am   BACKBONE|DICT|INTERRES
   115   59   60 1    
   116   59  125 1    
   117   60   61 1    
   118   60   62 1    
   119   60  126 1    
   120   61  127 1    
   121   61  128 1    
   122   61  129 1    
   123   62   63 2    
   124   62   64 am   BACKBONE|DICT|INTERRES
   125   64   65 1    
   126   64  130 1    
   127   65   66 1    
   128   65   69 1    
   129   65  131 1    
   130   66   67 am   BACKBONE|DICT|INTERRES
   131   66   68 2    
   132   67  132 1    
   133   67  133 1    
   134   69   70 1    
   135   69  134 1    
   136   69  135 1    
   137   70   71 1    
   138   71  136 1    
   139   71  137 1    
@<TRIPOS>SUBSTRUCTURE
     1 UNK         1 GROUP             0       ****    0 ROOT    
