@<TRIPOS>MOLECULE
3R137
137   139    1
SMALL
USER_CHARGES


@<TRIPOS>ATOM
      1 CA         24.1081   -2.0389    0.5968 C.3       0 UNK        -0.2020 
      2 C          25.5043   -1.7386    0.0751 C.2       0 UNK         0.4855 
      3 O          25.9165   -0.5781    0.0668 O.2       0 UNK        -0.5197 
      4 N          26.2426   -2.7668   -0.3663 N.am      1 UNK        -0.4892 
      5 CA         27.6076   -2.6307   -0.8860 C.3       1 UNK         0.0835 
      6 C6         28.3252   -3.9959   -1.0265 C.3       12 UNK        -0.0855 
      7 S7         30.1022   -3.8402   -0.6404 S.3       12 UNK        -0.2931 
      8 C8         30.8873   -4.7254   -2.0224 C.3       12 UNK         0.0378 
      9 C9         30.7116   -4.0064   -3.3518 C.ar      12 UNK        -0.0802 
     10 C10        31.3499   -2.7850   -3.5849 C.ar      12 UNK        -0.0944 
     11 C11        31.2297   -2.1445   -4.8226 C.ar      12 UNK        -0.0787 
     12 C12        30.4468   -2.7253   -5.8254 C.ar      12 UNK        -0.0862 
     13 C13        29.8040   -3.9461   -5.6017 C.ar      12 UNK        -0.0733 
     14 C14        29.9402   -4.5815   -4.3646 C.ar      12 UNK        -0.0832 
     15 C15        28.9783   -4.6010   -6.6966 C.3       12 UNK         0.0240 
     16 S16        27.1986   -4.4149   -6.3839 S.3       12 UNK        -0.2522 
     17 C17        26.9004   -2.7366   -7.0251 C.3       12 UNK        -0.0967 
     18 CA         25.3925   -2.3998   -6.9703 C.3       5 UNK         0.0660 
     19 N          24.9293   -2.1963   -5.5965 N.am      5 UNK        -0.4015 
     20 C          23.6412   -2.1992   -5.2290 C.2       4 UNK         0.4946 
     21 O          22.7045   -2.3945   -6.0053 O.2       4 UNK        -0.5353 
     22 CA         23.3439   -1.9563   -3.7444 C.3       4 UNK         0.0277 
     23 CB         23.5766   -3.2400   -2.9301 C.3       4 UNK        -0.1981 
     24 N          24.1492   -0.8575   -3.2064 N.am      4 UNK        -0.4209 
     25 C          23.8009    0.4361   -3.2925 C.2       3 UNK         0.4942 
     26 O          22.7462    0.8229   -3.7975 O.2       3 UNK        -0.5208 
     27 CA         24.7632    1.4862   -2.7076 C.3       3 UNK         0.0250 
     28 CB         24.2420    2.0014   -1.3556 C.3       3 UNK        -0.1990 
     29 N          26.1284    0.9792   -2.5464 N.am      3 UNK        -0.4232 
     30 C          27.0365    0.9652   -3.5351 C.2       2 UNK         0.4993 
     31 O          26.8356    1.4593   -4.6413 O.2       2 UNK        -0.5286 
     32 CA         28.3973    0.2936   -3.2644 C.3       2 UNK         0.0209 
     33 CB         29.4482    1.3639   -2.9234 C.3       2 UNK        -0.1931 
     34 N          28.3678   -0.7055   -2.1928 N.am      2 UNK        -0.4546 
     35 C          27.6137   -1.8127   -2.1937 C.2       1 UNK         0.5154 
     36 O          26.8783   -2.1420   -3.1299 O.2       1 UNK        -0.5181 
     37 C          25.0571   -1.1786   -7.8459 C.2       5 UNK         0.5014 
     38 O          25.4327   -0.0567   -7.5024 O.2       5 UNK        -0.5248 
     39 N          24.3931   -1.4263   -8.9849 N.am      6 UNK        -0.4434 
     40 CA         23.9554   -0.4108   -9.9528 C.3       6 UNK         0.0363 
     41 CB         23.0556   -1.0739  -11.0082 C.3       6 UNK        -0.1936 
     42 C          25.1049    0.3562  -10.6332 C.2       6 UNK         0.5081 
     43 O          24.8887    1.4706  -11.1093 O.2       6 UNK        -0.5248 
     44 N          26.3063   -0.2375  -10.6475 N.am      7 UNK        -0.4718 
     45 CA         27.5498    0.3881  -11.1050 C.3       7 UNK         0.0273 
     46 CB         28.6050   -0.7102  -11.3198 C.3       7 UNK        -0.1935 
     47 C          28.0903    1.4692  -10.1464 C.2       7 UNK         0.5018 
     48 O          28.9930    2.2073  -10.5418 O.2       7 UNK        -0.5186 
     49 N          27.5506    1.5385   -8.9188 N.am      8 UNK        -0.4240 
     50 CA         27.9739    2.3970   -7.8100 C.3       8 UNK         0.0235 
     51 CB         27.7911    3.8940   -8.1537 C.3       8 UNK        -0.2000 
     52 C          29.3856    2.0234   -7.3169 C.2       8 UNK         0.4941 
     53 O          29.7608    0.8486   -7.3685 O.2       8 UNK        -0.5273 
     54 N          30.1629    3.0143   -6.8604 N.am      9 UNK        -0.4262 
     55 CA         31.5370    2.8723   -6.3649 C.3       9 UNK         0.0264 
     56 CB         31.8761    4.0905   -5.4859 C.3       9 UNK        -0.1955 
     57 C          32.5748    2.6391   -7.4875 C.2       9 UNK         0.5031 
     58 O          33.6217    3.2884   -7.5040 O.2       9 UNK        -0.5390 
     59 N          32.2697    1.7171   -8.4087 N.am      10 UNK        -0.4204 
     60 CA         33.1305    1.3096   -9.5240 C.3       10 UNK         0.0237 
     61 CB         32.2496    0.7293  -10.6426 C.3       10 UNK        -0.1985 
     62 C          34.2111    0.2917   -9.1153 C.2       10 UNK         0.4970 
     63 O          35.1530    0.0762   -9.8793 O.2       10 UNK        -0.4914 
     64 N          34.0417   -0.3330   -7.9445 N.am      11 UNK        -0.4285 
     65 CA         34.9556   -1.3118   -7.3456 C.3       11 UNK         0.1007 
     66 C          36.3540   -0.7335   -6.9820 C.2       11 UNK         0.5703 
     67 N          37.3676   -1.5845   -6.8909 N.am      11 UNK        -0.7361 
     68 O          36.5266    0.4633   -6.7568 O.2       11 UNK        -0.4986 
     69 C69        34.2796   -2.0317   -6.1478 C.3       12 UNK        -0.0947 
     70 S70        33.7376   -0.9102   -4.8080 S.3       12 UNK        -0.2240 
     71 C71        31.9374   -0.8219   -5.0789 C.3       12 UNK         0.0194 
     72 H72        23.8743   -3.1022    0.5514 H         1 UNK         0.0906 
     73 H73        24.0208   -1.7175    1.6342 H         1 UNK         0.0906 
     74 H74        23.3650   -1.4986    0.0109 H         1 UNK         0.0906 
     75 H75        25.8558   -3.6998   -0.3685 H         1 UNK         0.3140 
     76 H76        28.1393   -2.0512   -0.1269 H         1 UNK         0.1085 
     77 H77        27.9180   -4.7159   -0.3147 H         1 UNK         0.0836 
     78 H78        28.1690   -4.4373   -2.0129 H         1 UNK         0.0836 
     79 H79        30.4906   -5.7410   -2.0685 H         1 UNK         0.0731 
     80 H80        31.9535   -4.8252   -1.8136 H         1 UNK         0.0731 
     81 H81        31.9522   -2.3386   -2.8053 H         1 UNK         0.1312 
     82 H82        30.3423   -2.2305   -6.7817 H         1 UNK         0.1406 
     83 H83        29.4453   -5.5285   -4.1960 H         1 UNK         0.1631 
     84 H84        29.2169   -5.6648   -6.7387 H         1 UNK         0.0717 
     85 H85        29.2309   -4.1948   -7.6773 H         1 UNK         0.0717 
     86 H86        27.4870   -2.0131   -6.4540 H         1 UNK         0.0934 
     87 H87        27.2731   -2.6993   -8.0507 H         1 UNK         0.0934 
     88 H88        24.8445   -3.2546   -7.3742 H         1 UNK         0.0739 
     89 H89        25.6443   -2.0580   -4.8916 H         1 UNK         0.3093 
     90 H90        22.2853   -1.7009   -3.6574 H         1 UNK         0.0818 
     91 H91        23.0135   -4.0740   -3.3516 H         1 UNK         0.0819 
     92 H92        24.6261   -3.5344   -2.9151 H         1 UNK         0.0819 
     93 H93        23.2418   -3.1208   -1.9014 H         1 UNK         0.0819 
     94 H94        25.0637   -1.0982   -2.8437 H         1 UNK         0.3041 
     95 H95        24.7786    2.3326   -3.3980 H         1 UNK         0.0784 
     96 H96        23.2664    2.4753   -1.4720 H         1 UNK         0.0793 
     97 H97        24.1237    1.1970   -0.6299 H         1 UNK         0.0793 
     98 H98        24.9136    2.7456   -0.9272 H         1 UNK         0.0793 
     99 H99        26.3521    0.5523   -1.6530 H         1 UNK         0.3024 
    100 H100       28.6992   -0.2172   -4.1823 H         1 UNK         0.1171 
    101 H101       29.1425    1.9694   -2.0691 H         1 UNK         0.0786 
    102 H102       29.5989    2.0411   -3.7655 H         1 UNK         0.0786 
    103 H103       30.4142    0.9215   -2.6830 H         1 UNK         0.0786 
    104 H104       28.9247   -0.5008   -1.3754 H         1 UNK         0.2977 
    105 H105       24.1242   -2.3788   -9.1886 H         1 UNK         0.3127 
    106 H106       23.3590    0.3247   -9.4085 H         1 UNK         0.0770 
    107 H107       23.5904   -1.8391  -11.5724 H         1 UNK         0.0814 
    108 H108       22.6882   -0.3385  -11.7256 H         1 UNK         0.0814 
    109 H109       22.1822   -1.5396  -10.5511 H         1 UNK         0.0814 
    110 H110       26.3815   -1.1627  -10.2518 H         1 UNK         0.2983 
    111 H111       27.3566    0.8737  -12.0642 H         1 UNK         0.0947 
    112 H112       28.2567   -1.4664  -12.0236 H         1 UNK         0.0806 
    113 H113       28.8639   -1.2103  -10.3854 H         1 UNK         0.0806 
    114 H114       29.5245   -0.2906  -11.7299 H         1 UNK         0.0806 
    115 H115       26.8240    0.8729   -8.6755 H         1 UNK         0.3000 
    116 H116       27.2922    2.1656   -6.9939 H         1 UNK         0.0850 
    117 H117       27.8873    4.5197   -7.2658 H         1 UNK         0.0810 
    118 H118       26.7983    4.0816   -8.5631 H         1 UNK         0.0810 
    119 H119       28.5204    4.2407   -8.8869 H         1 UNK         0.0810 
    120 H120       29.7956    3.9544   -6.8908 H         1 UNK         0.3040 
    121 H121       31.5727    1.9932   -5.7207 H         1 UNK         0.0766 
    122 H122       32.8645    3.9865   -5.0360 H         1 UNK         0.0812 
    123 H123       31.8757    5.0164   -6.0625 H         1 UNK         0.0812 
    124 H124       31.1637    4.2020   -4.6683 H         1 UNK         0.0812 
    125 H125       31.3746    1.2426   -8.3094 H         1 UNK         0.3205 
    126 H126       33.6434    2.1912   -9.9144 H         1 UNK         0.0754 
    127 H127       32.8526    0.4099  -11.4938 H         1 UNK         0.0769 
    128 H128       31.5426    1.4719  -11.0122 H         1 UNK         0.0769 
    129 H129       31.6806   -0.1362  -10.3007 H         1 UNK         0.0769 
    130 H130       33.2626   -0.0593   -7.3690 H         1 UNK         0.2981 
    131 H131       35.1303   -2.0666   -8.1149 H         1 UNK         0.0541 
    132 H132       37.2403   -2.5697   -7.0629 H         1 UNK         0.3459 
    133 H133       38.2802   -1.2333   -6.6460 H         1 UNK         0.3459 
    134 H134       34.9561   -2.7710   -5.7160 H         1 UNK         0.0612 
    135 H135       33.4232   -2.6042   -6.5060 H         1 UNK         0.0612 
    136 H136       31.7479   -0.4725   -6.0936 H         1 UNK         0.0624 
    137 H137       31.5233   -0.0688   -4.4118 H         1 UNK         0.0624 
@<TRIPOS>BOND
     1    1    2 1    
     2    1   72 1    
     3    1   73 1    
     4    1   74 1    
     5    2    3 2    
     6    2    4 am   BACKBONE|DICT|INTERRES
     7    4    5 1    
     8    4   75 1    
     9    5    6 1    
    10    5   35 1    
    11    5   76 1    
    12    6    7 1    
    13    6   77 1    
    14    6   78 1    
    15    7    8 1    
    16    8    9 1    
    17    8   79 1    
    18    8   80 1    
    19    9   10 ar   
    20    9   14 ar   
    21   10   11 ar   
    22   10   81 1    
    23   11   12 ar   
    24   11   71 1    
    25   12   13 ar   
    26   12   82 1    
    27   13   14 ar   
    28   13   15 1    
    29   14   83 1    
    30   15   16 1    
    31   15   84 1    
    32   15   85 1    
    33   16   17 1    
    34   17   18 1    
    35   17   86 1    
    36   17   87 1    
    37   18   19 1    
    38   18   37 1    
    39   18   88 1    
    40   19   20 am   BACKBONE|DICT|INTERRES
    41   19   89 1    
    42   20   21 2    
    43   20   22 1    
    44   22   23 1    
    45   22   24 1    
    46   22   90 1    
    47   23   91 1    
    48   23   92 1    
    49   23   93 1    
    50   24   25 am   BACKBONE|DICT|INTERRES
    51   24   94 1    
    52   25   26 2    
    53   25   27 1    
    54   27   28 1    
    55   27   29 1    
    56   27   95 1    
    57   28   96 1    
    58   28   97 1    
    59   28   98 1    
    60   29   30 am   BACKBONE|DICT|INTERRES
    61   29   99 1    
    62   30   31 2    
    63   30   32 1    
    64   32   33 1    
    65   32   34 1    
    66   32  100 1    
    67   33  101 1    
    68   33  102 1    
    69   33  103 1    
    70   34   35 am   BACKBONE|DICT|INTERRES
    71   34  104 1    
    72   35   36 2    
    73   37   38 2    
    74   37   39 am   BACKBONE|DICT|INTERRES
    75   39   40 1    
    76   39  105 1    
    77   40   41 1    
    78   40   42 1    
    79   40  106 1    
    80   41  107 1    
    81   41  108 1    
    82   41  109 1    
    83   42   43 2    
    84   42   44 am   BACKBONE|DICT|INTERRES
    85   44   45 1    
    86   44  110 1    
    87   45   46 1    
    88   45   47 1    
    89   45  111 1    
    90   46  112 1    
    91   46  113 1    
    92   46  114 1    
    93   47   48 2    
    94   47   49 am   BACKBONE|DICT|INTERRES
    95   49   50 1    
    96   49  115 1    
    97   50   51 1    
    98   50   52 1    
    99   50  116 1    
   100   51  117 1    
   101   51  118 1    
   102   51  119 1    
   103   52   53 2    
   104   52   54 am   BACKBONE|DICT|INTERRES
   105   54   55 1    
   106   54  120 1    
   107   55   56 1    
   108   55   57 1    
   109   55  121 1    
   110   56  122 1    
   111   56  123 1    
   112   56  124 1    
   113   57   58 2    
   114   57   59 am   BACKBONE|DICT|INTERRES
   115   59   60 1    
   116   59  125 1    
   117   60   61 1    
   118   60   62 1    
   119   60  126 1    
   120   61  127 1    
   121   61  128 1    
   122   61  129 1    
   123   62   63 2    
   124   62   64 am   BACKBONE|DICT|INTERRES
   125   64   65 1    
   126   64  130 1    
   127   65   66 1    
   128   65   69 1    
   129   65  131 1    
   130   66   67 am   BACKBONE|DICT|INTERRES
   131   66   68 2    
   132   67  132 1    
   133   67  133 1    
   134   69   70 1    
   135   69  134 1    
   136   69  135 1    
   137   70   71 1    
   138   71  136 1    
   139   71  137 1    
@<TRIPOS>SUBSTRUCTURE
     1 UNK         1 GROUP             0       ****    0 ROOT    
