@<TRIPOS>MOLECULE
3R137
137   139    1
SMALL
USER_CHARGES


@<TRIPOS>ATOM
      1 CA         28.4269   -2.3230   -5.2789 C.3       0 UNK        -0.2020 
      2 C          27.8128   -3.6286   -4.8043 C.2       0 UNK         0.4855 
      3 O          27.1499   -4.3125   -5.5853 O.2       0 UNK        -0.5197 
      4 N          28.0366   -3.9864   -3.5342 N.am      1 UNK        -0.4892 
      5 CA         27.5375   -5.2077   -2.8956 C.3       1 UNK         0.0835 
      6 C6         28.2028   -5.4443   -1.5180 C.3       12 UNK        -0.0855 
      7 S7         29.9943   -5.7488   -1.6829 S.3       12 UNK        -0.2931 
      8 C8         30.7083   -4.4787   -0.5897 C.3       12 UNK         0.0378 
      9 C9         30.6113   -3.0684   -1.1605 C.ar      12 UNK        -0.0802 
     10 C10        31.2777   -2.7387   -2.3456 C.ar      12 UNK        -0.0944 
     11 C11        31.2639   -1.4300   -2.8396 C.ar      12 UNK        -0.0787 
     12 C12        30.5787   -0.4446   -2.1166 C.ar      12 UNK        -0.0862 
     13 C13        29.8940   -0.7592   -0.9398 C.ar      12 UNK        -0.0733 
     14 C14        29.9075   -2.0762   -0.4708 C.ar      12 UNK        -0.0832 
     15 C15        29.1801    0.3319   -0.1501 C.3       12 UNK         0.0240 
     16 S16        27.5296    0.7182   -0.8210 S.3       12 UNK        -0.2522 
     17 C17        27.9300    1.7910   -2.2441 C.3       12 UNK        -0.0967 
     18 CA         27.7188    1.0451   -3.5905 C.3       5 UNK         0.0660 
     19 N          26.3088    0.7275   -3.8316 N.am      5 UNK        -0.4015 
     20 C          25.3266    1.5551   -4.2096 C.2       4 UNK         0.4946 
     21 O          25.5045    2.7349   -4.5210 O.2       4 UNK        -0.5353 
     22 CA         23.9024    0.9571   -4.2298 C.3       4 UNK         0.0277 
     23 CB         22.8279    1.9951   -4.6068 C.3       4 UNK        -0.1981 
     24 N          23.7607   -0.2131   -5.1052 N.am      4 UNK        -0.4209 
     25 C          24.2638   -1.4316   -4.8680 C.2       3 UNK         0.4942 
     26 O          24.9791   -1.6947   -3.8975 O.2       3 UNK        -0.5208 
     27 CA         23.9337   -2.5215   -5.9003 C.3       3 UNK         0.0250 
     28 CB         24.7640   -2.3355   -7.1811 C.3       3 UNK        -0.1990 
     29 N          24.2024   -3.8485   -5.3439 N.am      3 UNK        -0.4232 
     30 C          23.3569   -4.5206   -4.5489 C.2       2 UNK         0.4993 
     31 O          22.2036   -4.1554   -4.3147 O.2       2 UNK        -0.5286 
     32 CA         23.8716   -5.8199   -3.9028 C.3       2 UNK         0.0209 
     33 CB         23.4368   -7.0414   -4.7294 C.3       2 UNK        -0.1931 
     34 N          25.3280   -5.8370   -3.7481 N.am      2 UNK        -0.4546 
     35 C          25.9984   -5.1823   -2.7899 C.2       1 UNK         0.5154 
     36 O          25.4555   -4.5700   -1.8680 O.2       1 UNK        -0.5181 
     37 C          28.3564    1.7402   -4.8113 C.2       5 UNK         0.5014 
     38 O          28.5557    1.0847   -5.8348 O.2       5 UNK        -0.5248 
     39 N          28.6231    3.0504   -4.7007 N.am      6 UNK        -0.4434 
     40 CA         29.2131    3.9067   -5.7350 C.3       6 UNK         0.0363 
     41 CB         29.4612    5.3028   -5.1404 C.3       6 UNK        -0.1936 
     42 C          28.4004    4.0120   -7.0413 C.2       6 UNK         0.5081 
     43 O          28.9428    4.4826   -8.0414 O.2       6 UNK        -0.5248 
     44 N          27.1325    3.5732   -7.0297 N.am      7 UNK        -0.4718 
     45 CA         26.2976    3.4211   -8.2234 C.3       7 UNK         0.0273 
     46 CB         24.8565    3.1038   -7.7962 C.3       7 UNK        -0.1935 
     47 C          26.8110    2.3430   -9.1984 C.2       7 UNK         0.5018 
     48 O          26.5192    2.4367  -10.3917 O.2       7 UNK        -0.5186 
     49 N          27.5540    1.3462   -8.6940 N.am      8 UNK        -0.4240 
     50 CA         28.2010    0.3210   -9.5094 C.3       8 UNK         0.0235 
     51 CB         28.3971   -0.9505   -8.6700 C.3       8 UNK        -0.2000 
     52 C          29.5543    0.8393  -10.0099 C.2       8 UNK         0.4941 
     53 O          30.3780    1.2594   -9.1952 O.2       8 UNK        -0.5273 
     54 N          29.7910    0.7454  -11.3262 N.am      9 UNK        -0.4262 
     55 CA         31.0417    1.1554  -11.9806 C.3       9 UNK         0.0264 
     56 CB         30.8962    1.0125  -13.5041 C.3       9 UNK        -0.1955 
     57 C          32.2815    0.3898  -11.4822 C.2       9 UNK         0.5031 
     58 O          33.3690    0.9656  -11.4252 O.2       9 UNK        -0.5390 
     59 N          32.0841   -0.8733  -11.0770 N.am      10 UNK        -0.4204 
     60 CA         33.0913   -1.7324  -10.4481 C.3       10 UNK         0.0237 
     61 CB         32.5161   -3.1504  -10.2972 C.3       10 UNK        -0.1985 
     62 C          33.6012   -1.2133   -9.0890 C.2       10 UNK         0.4970 
     63 O          34.6993   -1.5962   -8.6835 O.2       10 UNK        -0.4914 
     64 N          32.8171   -0.3575   -8.4184 N.am      11 UNK        -0.4285 
     65 CA         33.2051    0.3402   -7.1861 C.3       11 UNK         0.1007 
     66 C          34.1172    1.5821   -7.4280 C.2       11 UNK         0.5703 
     67 N          34.3594    2.0097   -8.6635 N.am      11 UNK        -0.7361 
     68 O          34.6365    2.1610   -6.4773 O.2       11 UNK        -0.4986 
     69 C69        31.9500    0.6771   -6.3356 C.3       12 UNK        -0.0947 
     70 S70        32.2592    0.6271   -4.5393 S.3       12 UNK        -0.2240 
     71 C71        31.9736   -1.1411   -4.1657 C.3       12 UNK         0.0194 
     72 H72        29.0801   -2.5073   -6.1307 H         1 UNK         0.0906 
     73 H73        27.6490   -1.6243   -5.5844 H         1 UNK         0.0906 
     74 H74        29.0178   -1.8494   -4.4986 H         1 UNK         0.0906 
     75 H75        28.5931   -3.3899   -2.9377 H         1 UNK         0.3140 
     76 H76        27.8109   -6.0484   -3.5377 H         1 UNK         0.1085 
     77 H77        27.7661   -6.3159   -1.0264 H         1 UNK         0.0836 
     78 H78        28.0231   -4.5983   -0.8516 H         1 UNK         0.0836 
     79 H79        30.2326   -4.5417    0.3904 H         1 UNK         0.0731 
     80 H80        31.7612   -4.7143   -0.4286 H         1 UNK         0.0731 
     81 H81        31.8156   -3.5087   -2.8826 H         1 UNK         0.1312 
     82 H82        30.5676    0.5760   -2.4652 H         1 UNK         0.1406 
     83 H83        29.3947   -2.3208    0.4500 H         1 UNK         0.1631 
     84 H84        29.7914    1.2350   -0.1173 H         1 UNK         0.0717 
     85 H85        29.0608    0.0190    0.8883 H         1 UNK         0.0717 
     86 H86        27.2939    2.6763   -2.1876 H         1 UNK         0.0934 
     87 H87        28.9545    2.1505   -2.1390 H         1 UNK         0.0934 
     88 H88        28.2248    0.0841   -3.5146 H         1 UNK         0.0739 
     89 H89        26.0364   -0.2386   -3.6576 H         1 UNK         0.3093 
     90 H90        23.6932    0.6348   -3.2073 H         1 UNK         0.0818 
     91 H91        21.8243    1.5810   -4.5086 H         1 UNK         0.0819 
     92 H92        22.8790    2.8669   -3.9529 H         1 UNK         0.0819 
     93 H93        22.9456    2.3498   -5.6306 H         1 UNK         0.0819 
     94 H94        23.2120   -0.0759   -5.9419 H         1 UNK         0.3041 
     95 H95        22.8749   -2.4451   -6.1572 H         1 UNK         0.0784 
     96 H96        24.5103   -3.0882   -7.9278 H         1 UNK         0.0793 
     97 H97        24.5876   -1.3592   -7.6344 H         1 UNK         0.0793 
     98 H98        25.8315   -2.4146   -6.9820 H         1 UNK         0.0793 
     99 H99        25.1591   -4.1796   -5.4267 H         1 UNK         0.3024 
    100 H100       23.4139   -5.8945   -2.9133 H         1 UNK         0.1171 
    101 H101       23.8668   -7.0257   -5.7317 H         1 UNK         0.0786 
    102 H102       22.3519   -7.0704   -4.8407 H         1 UNK         0.0786 
    103 H103       23.7364   -7.9730   -4.2488 H         1 UNK         0.0786 
    104 H104       25.8566   -6.2741   -4.4908 H         1 UNK         0.2977 
    105 H105       28.3585    3.5158   -3.8453 H         1 UNK         0.3127 
    106 H106       30.1788    3.4740   -6.0010 H         1 UNK         0.0770 
    107 H107       28.5303    5.7803   -4.8319 H         1 UNK         0.0814 
    108 H108       29.9375    5.9596   -5.8698 H         1 UNK         0.0814 
    109 H109       30.1210    5.2555   -4.2738 H         1 UNK         0.0814 
    110 H110       26.7421    3.2397   -6.1538 H         1 UNK         0.2983 
    111 H111       26.2982    4.3740   -8.7569 H         1 UNK         0.0947 
    112 H112       24.1940    3.0560   -8.6615 H         1 UNK         0.0806 
    113 H113       24.4620    3.8684   -7.1266 H         1 UNK         0.0806 
    114 H114       24.7943    2.1429   -7.2845 H         1 UNK         0.0806 
    115 H115       27.8167    1.3714   -7.7126 H         1 UNK         0.3000 
    116 H116       27.5623    0.0737  -10.3603 H         1 UNK         0.0850 
    117 H117       29.0394   -0.7645   -7.8086 H         1 UNK         0.0810 
    118 H118       27.4453   -1.3306   -8.3027 H         1 UNK         0.0810 
    119 H119       28.8594   -1.7441   -9.2580 H         1 UNK         0.0810 
    120 H120       29.0612    0.3906  -11.9284 H         1 UNK         0.3040 
    121 H121       31.2001    2.2111  -11.7497 H         1 UNK         0.0766 
    122 H122       30.0812    1.6283  -13.8851 H         1 UNK         0.0812 
    123 H123       30.7045   -0.0201  -13.7984 H         1 UNK         0.0812 
    124 H124       31.8061    1.3328  -14.0141 H         1 UNK         0.0812 
    125 H125       31.1552   -1.2573  -11.1694 H         1 UNK         0.3205 
    126 H126       33.9514   -1.7791  -11.1194 H         1 UNK         0.0754 
    127 H127       32.2301   -3.5688  -11.2625 H         1 UNK         0.0769 
    128 H128       31.6379   -3.1636   -9.6500 H         1 UNK         0.0769 
    129 H129       33.2527   -3.8264   -9.8601 H         1 UNK         0.0769 
    130 H130       31.9493   -0.0395   -8.8353 H         1 UNK         0.2981 
    131 H131       33.8123   -0.3605   -6.6100 H         1 UNK         0.0541 
    132 H132       33.9554    1.5489   -9.4695 H         1 UNK         0.3459 
    133 H133       34.9586    2.8088   -8.7945 H         1 UNK         0.3459 
    134 H134       31.1342   -0.0139   -6.5530 H         1 UNK         0.0612 
    135 H135       31.5555    1.6597   -6.5975 H         1 UNK         0.0612 
    136 H136       32.9427   -1.6420   -4.1743 H         1 UNK         0.0624 
    137 H137       31.3897   -1.5984   -4.9641 H         1 UNK         0.0624 
@<TRIPOS>BOND
     1    1    2 1    
     2    1   72 1    
     3    1   73 1    
     4    1   74 1    
     5    2    3 2    
     6    2    4 am   BACKBONE|DICT|INTERRES
     7    4    5 1    
     8    4   75 1    
     9    5    6 1    
    10    5   35 1    
    11    5   76 1    
    12    6    7 1    
    13    6   77 1    
    14    6   78 1    
    15    7    8 1    
    16    8    9 1    
    17    8   79 1    
    18    8   80 1    
    19    9   10 ar   
    20    9   14 ar   
    21   10   11 ar   
    22   10   81 1    
    23   11   12 ar   
    24   11   71 1    
    25   12   13 ar   
    26   12   82 1    
    27   13   14 ar   
    28   13   15 1    
    29   14   83 1    
    30   15   16 1    
    31   15   84 1    
    32   15   85 1    
    33   16   17 1    
    34   17   18 1    
    35   17   86 1    
    36   17   87 1    
    37   18   19 1    
    38   18   37 1    
    39   18   88 1    
    40   19   20 am   BACKBONE|DICT|INTERRES
    41   19   89 1    
    42   20   21 2    
    43   20   22 1    
    44   22   23 1    
    45   22   24 1    
    46   22   90 1    
    47   23   91 1    
    48   23   92 1    
    49   23   93 1    
    50   24   25 am   BACKBONE|DICT|INTERRES
    51   24   94 1    
    52   25   26 2    
    53   25   27 1    
    54   27   28 1    
    55   27   29 1    
    56   27   95 1    
    57   28   96 1    
    58   28   97 1    
    59   28   98 1    
    60   29   30 am   BACKBONE|DICT|INTERRES
    61   29   99 1    
    62   30   31 2    
    63   30   32 1    
    64   32   33 1    
    65   32   34 1    
    66   32  100 1    
    67   33  101 1    
    68   33  102 1    
    69   33  103 1    
    70   34   35 am   BACKBONE|DICT|INTERRES
    71   34  104 1    
    72   35   36 2    
    73   37   38 2    
    74   37   39 am   BACKBONE|DICT|INTERRES
    75   39   40 1    
    76   39  105 1    
    77   40   41 1    
    78   40   42 1    
    79   40  106 1    
    80   41  107 1    
    81   41  108 1    
    82   41  109 1    
    83   42   43 2    
    84   42   44 am   BACKBONE|DICT|INTERRES
    85   44   45 1    
    86   44  110 1    
    87   45   46 1    
    88   45   47 1    
    89   45  111 1    
    90   46  112 1    
    91   46  113 1    
    92   46  114 1    
    93   47   48 2    
    94   47   49 am   BACKBONE|DICT|INTERRES
    95   49   50 1    
    96   49  115 1    
    97   50   51 1    
    98   50   52 1    
    99   50  116 1    
   100   51  117 1    
   101   51  118 1    
   102   51  119 1    
   103   52   53 2    
   104   52   54 am   BACKBONE|DICT|INTERRES
   105   54   55 1    
   106   54  120 1    
   107   55   56 1    
   108   55   57 1    
   109   55  121 1    
   110   56  122 1    
   111   56  123 1    
   112   56  124 1    
   113   57   58 2    
   114   57   59 am   BACKBONE|DICT|INTERRES
   115   59   60 1    
   116   59  125 1    
   117   60   61 1    
   118   60   62 1    
   119   60  126 1    
   120   61  127 1    
   121   61  128 1    
   122   61  129 1    
   123   62   63 2    
   124   62   64 am   BACKBONE|DICT|INTERRES
   125   64   65 1    
   126   64  130 1    
   127   65   66 1    
   128   65   69 1    
   129   65  131 1    
   130   66   67 am   BACKBONE|DICT|INTERRES
   131   66   68 2    
   132   67  132 1    
   133   67  133 1    
   134   69   70 1    
   135   69  134 1    
   136   69  135 1    
   137   70   71 1    
   138   71  136 1    
   139   71  137 1    
@<TRIPOS>SUBSTRUCTURE
     1 UNK         1 GROUP             0       ****    0 ROOT    
