@<TRIPOS>MOLECULE
3R137
137   139    1
SMALL
USER_CHARGES


@<TRIPOS>ATOM
      1 CA         29.8066    1.2224   -0.4136 C.3       0 UNK        -0.2020 
      2 C          29.2660   -0.0238   -1.0981 C.2       0 UNK         0.4855 
      3 O          29.0614   -0.0118   -2.3112 O.2       0 UNK        -0.5197 
      4 N          29.0448   -1.0988   -0.3319 N.am      1 UNK        -0.4892 
      5 CA         28.4993   -2.3686   -0.8236 C.3       1 UNK         0.0835 
      6 C6         28.8016   -3.5536    0.1328 C.3       12 UNK        -0.0855 
      7 S7         30.5669   -3.7084    0.5779 S.3       12 UNK        -0.2931 
      8 C8         31.2005   -4.8155   -0.7262 C.3       12 UNK         0.0378 
      9 C9         31.1207   -4.1846   -2.1107 C.ar      12 UNK        -0.0802 
     10 C10        31.7541   -2.9641   -2.3650 C.ar      12 UNK        -0.0944 
     11 C11        31.6590   -2.3656   -3.6222 C.ar      12 UNK        -0.0787 
     12 C12        30.9473   -3.0079   -4.6377 C.ar      12 UNK        -0.0862 
     13 C13        30.3043   -4.2301   -4.4036 C.ar      12 UNK        -0.0733 
     14 C14        30.4013   -4.8116   -3.1343 C.ar      12 UNK        -0.0832 
     15 C15        29.5183   -4.9652   -5.4927 C.3       12 UNK         0.0240 
     16 S16        28.9522   -3.9373   -6.8943 S.3       12 UNK        -0.2522 
     17 C17        27.7063   -2.8829   -6.0888 C.3       12 UNK        -0.0967 
     18 CA         27.0787   -1.8511   -7.0690 C.3       5 UNK         0.0660 
     19 N          25.6195   -1.8157   -6.9413 N.am      5 UNK        -0.4015 
     20 C          24.7755   -1.2705   -7.8271 C.2       4 UNK         0.4946 
     21 O          25.1314   -0.7486   -8.8824 O.2       4 UNK        -0.5353 
     22 CA         23.2807   -1.2889   -7.4610 C.3       4 UNK         0.0277 
     23 CB         22.6278   -2.5991   -7.9295 C.3       4 UNK        -0.1981 
     24 N          23.0406   -1.1062   -6.0264 N.am      4 UNK        -0.4209 
     25 C          23.2924    0.0311   -5.3631 C.2       3 UNK         0.4942 
     26 O          23.7087    1.0563   -5.8990 O.2       3 UNK        -0.5208 
     27 CA         23.1010    0.0088   -3.8376 C.3       3 UNK         0.0250 
     28 CB         21.6329    0.2825   -3.4742 C.3       3 UNK        -0.1990 
     29 N          23.5491   -1.2294   -3.1875 N.am      3 UNK        -0.4232 
     30 C          24.7834   -1.7444   -3.2775 C.2       2 UNK         0.4993 
     31 O          25.6652   -1.2943   -4.0133 O.2       2 UNK        -0.5286 
     32 CA         25.0677   -3.0048   -2.4461 C.3       2 UNK         0.0209 
     33 CB         24.7464   -4.2716   -3.2560 C.3       2 UNK        -0.1931 
     34 N          26.4691   -3.0448   -2.0219 N.am      2 UNK        -0.4546 
     35 C          26.9826   -2.2526   -1.0714 C.2       1 UNK         0.5154 
     36 O          26.3010   -1.4915   -0.3774 O.2       1 UNK        -0.5181 
     37 C          27.6741   -0.4379   -6.8972 C.2       5 UNK         0.5014 
     38 O          28.5377   -0.0305   -7.6787 O.2       5 UNK        -0.5248 
     39 N          27.1537    0.3008   -5.9056 N.am      6 UNK        -0.4434 
     40 CA         27.4552    1.7106   -5.6610 C.3       6 UNK         0.0363 
     41 CB         26.8066    2.1589   -4.3418 C.3       6 UNK        -0.1936 
     42 C          27.0177    2.6145   -6.8262 C.2       6 UNK         0.5081 
     43 O          27.8124    3.4401   -7.2739 O.2       6 UNK        -0.5248 
     44 N          25.7881    2.4207   -7.3284 N.am      7 UNK        -0.4718 
     45 CA         25.2303    3.1433   -8.4790 C.3       7 UNK         0.0273 
     46 CB         23.7453    2.7871   -8.6484 C.3       7 UNK        -0.1935 
     47 C          25.9954    2.8933   -9.7899 C.2       7 UNK         0.5018 
     48 O          26.1450    3.8201  -10.5867 O.2       7 UNK        -0.5186 
     49 N          26.4978    1.6643   -9.9733 N.am      8 UNK        -0.4240 
     50 CA         27.3840    1.2789  -11.0751 C.3       8 UNK         0.0235 
     51 CB         27.4179   -0.2557  -11.1772 C.3       8 UNK        -0.2000 
     52 C          28.8158    1.8373  -10.9480 C.2       8 UNK         0.4941 
     53 O          29.5738    1.7326  -11.9133 O.2       8 UNK        -0.5273 
     54 N          29.1670    2.3961   -9.7778 N.am      9 UNK        -0.4262 
     55 CA         30.4860    2.9093   -9.3909 C.3       9 UNK         0.0264 
     56 CB         30.8630    4.1542  -10.2224 C.3       9 UNK        -0.1955 
     57 C          31.5698    1.8146   -9.4048 C.2       9 UNK         0.5031 
     58 O          32.6951    2.0607   -9.8469 O.2       9 UNK        -0.5390 
     59 N          31.2033    0.6163   -8.9314 N.am      10 UNK        -0.4204 
     60 CA         32.0879   -0.5432   -8.8309 C.3       10 UNK         0.0237 
     61 CB         31.2159   -1.7993   -8.6848 C.3       10 UNK        -0.1985 
     62 C          33.0833   -0.4227   -7.6616 C.2       10 UNK         0.4970 
     63 O          32.9618    0.4765   -6.8287 O.2       10 UNK        -0.4914 
     64 N          34.0439   -1.3534   -7.6361 N.am      11 UNK        -0.4285 
     65 CA         35.0743   -1.5654   -6.6038 C.3       11 UNK         0.1007 
     66 C          36.1349   -0.4354   -6.4190 C.2       11 UNK         0.5703 
     67 N          36.1056    0.6429   -7.1924 N.am      11 UNK        -0.7361 
     68 O          37.0414   -0.5678   -5.5997 O.2       11 UNK        -0.4986 
     69 C69        34.4977   -2.1766   -5.2855 C.3       12 UNK        -0.0947 
     70 S70        34.1024   -1.0307   -3.9124 S.3       12 UNK        -0.2240 
     71 C71        32.2806   -1.0007   -3.8764 C.3       12 UNK         0.0194 
     72 H72        29.1165    2.0543   -0.5517 H         1 UNK         0.0906 
     73 H73        30.7669    1.5002   -0.8473 H         1 UNK         0.0906 
     74 H74        29.9482    1.0720    0.6565 H         1 UNK         0.0906 
     75 H75        29.2189   -1.0558    0.6617 H         1 UNK         0.3140 
     76 H76        28.9657   -2.5718   -1.7888 H         1 UNK         0.1085 
     77 H77        28.4655   -4.4956   -0.3050 H         1 UNK         0.0836 
     78 H78        28.2416   -3.4402    1.0634 H         1 UNK         0.0836 
     79 H79        32.2424   -5.0546   -0.5091 H         1 UNK         0.0731 
     80 H80        30.6545   -5.7596   -0.6901 H         1 UNK         0.0731 
     81 H81        32.3001   -2.4659   -1.5753 H         1 UNK         0.1312 
     82 H82        30.8924   -2.5391   -5.6083 H         1 UNK         0.1406 
     83 H83        29.9138   -5.7583   -2.9430 H         1 UNK         0.1631 
     84 H84        28.6476   -5.4555   -5.0545 H         1 UNK         0.0717 
     85 H85        30.1514   -5.7597   -5.8897 H         1 UNK         0.0717 
     86 H86        26.9433   -3.5587   -5.7025 H         1 UNK         0.0934 
     87 H87        28.1376   -2.4046   -5.2062 H         1 UNK         0.0934 
     88 H88        27.2885   -2.1599   -8.0957 H         1 UNK         0.0739 
     89 H89        25.2469   -2.1275   -6.0558 H         1 UNK         0.3093 
     90 H90        22.8016   -0.4627   -7.9904 H         1 UNK         0.0818 
     91 H91        22.7767   -2.7462   -9.0003 H         1 UNK         0.0819 
     92 H92        23.0471   -3.4677   -7.4202 H         1 UNK         0.0819 
     93 H93        21.5521   -2.5918   -7.7527 H         1 UNK         0.0819 
     94 H94        22.6898   -1.8994   -5.5095 H         1 UNK         0.3041 
     95 H95        23.7066    0.8199   -3.4279 H         1 UNK         0.0784 
     96 H96        21.2835    1.2084   -3.9338 H         1 UNK         0.0793 
     97 H97        20.9746   -0.5182   -3.8135 H         1 UNK         0.0793 
     98 H98        21.5035    0.3908   -2.3971 H         1 UNK         0.0793 
     99 H99        22.8808   -1.6786   -2.5774 H         1 UNK         0.3024 
    100 H100       24.4365   -2.9882   -1.5543 H         1 UNK         0.1171 
    101 H101       23.7008   -4.2842   -3.5669 H         1 UNK         0.0786 
    102 H102       25.3545   -4.3463   -4.1571 H         1 UNK         0.0786 
    103 H103       24.9152   -5.1717   -2.6645 H         1 UNK         0.0786 
    104 H104       27.0884   -3.6287   -2.5638 H         1 UNK         0.2977 
    105 H105       26.4948   -0.1449   -5.2702 H         1 UNK         0.3127 
    106 H106       28.5385    1.8003   -5.5552 H         1 UNK         0.0770 
    107 H107       25.7192    2.0958   -4.3814 H         1 UNK         0.0814 
    108 H108       27.0659    3.1932   -4.1126 H         1 UNK         0.0814 
    109 H109       27.1449    1.5459   -3.5062 H         1 UNK         0.0814 
    110 H110       25.1660    1.7630   -6.8626 H         1 UNK         0.2983 
    111 H111       25.3013    4.2109   -8.2604 H         1 UNK         0.0947 
    112 H112       23.3054    3.3299   -9.4861 H         1 UNK         0.0806 
    113 H113       23.1713    3.0455   -7.7584 H         1 UNK         0.0806 
    114 H114       23.6069    1.7227   -8.8395 H         1 UNK         0.0806 
    115 H115       26.2582    0.9360   -9.3077 H         1 UNK         0.3000 
    116 H116       26.9654    1.6735  -12.0033 H         1 UNK         0.0850 
    117 H117       28.0449   -0.5816  -12.0081 H         1 UNK         0.0810 
    118 H118       26.4213   -0.6639  -11.3458 H         1 UNK         0.0810 
    119 H119       27.8167   -0.7103  -10.2697 H         1 UNK         0.0810 
    120 H120       28.4670    2.4387   -9.0454 H         1 UNK         0.3040 
    121 H121       30.3937    3.2260   -8.3510 H         1 UNK         0.0766 
    122 H122       31.0312    3.9069  -11.2709 H         1 UNK         0.0812 
    123 H123       31.7791    4.6112   -9.8462 H         1 UNK         0.0812 
    124 H124       30.0809    4.9120  -10.1767 H         1 UNK         0.0812 
    125 H125       30.2665    0.5033   -8.5520 H         1 UNK         0.3205 
    126 H126       32.6602   -0.6218   -9.7578 H         1 UNK         0.0754 
    127 H127       31.8144   -2.7099   -8.6441 H         1 UNK         0.0769 
    128 H128       30.5250   -1.9040   -9.5218 H         1 UNK         0.0769 
    129 H129       30.6238   -1.7546   -7.7722 H         1 UNK         0.0769 
    130 H130       34.0731   -2.0184   -8.3954 H         1 UNK         0.2981 
    131 H131       35.6686   -2.3657   -7.0466 H         1 UNK         0.0541 
    132 H132       36.8103    1.3538   -7.0765 H         1 UNK         0.3459 
    133 H133       35.3545    0.7755   -7.8508 H         1 UNK         0.3459 
    134 H134       35.2372   -2.8685   -4.8797 H         1 UNK         0.0612 
    135 H135       33.6327   -2.8006   -5.5088 H         1 UNK         0.0612 
    136 H136       31.9628   -0.3183   -3.0870 H         1 UNK         0.0624 
    137 H137       31.8991   -0.5764   -4.8035 H         1 UNK         0.0624 
@<TRIPOS>BOND
     1    1    2 1    
     2    1   72 1    
     3    1   73 1    
     4    1   74 1    
     5    2    3 2    
     6    2    4 am   BACKBONE|DICT|INTERRES
     7    4    5 1    
     8    4   75 1    
     9    5    6 1    
    10    5   35 1    
    11    5   76 1    
    12    6    7 1    
    13    6   77 1    
    14    6   78 1    
    15    7    8 1    
    16    8    9 1    
    17    8   79 1    
    18    8   80 1    
    19    9   10 ar   
    20    9   14 ar   
    21   10   11 ar   
    22   10   81 1    
    23   11   12 ar   
    24   11   71 1    
    25   12   13 ar   
    26   12   82 1    
    27   13   14 ar   
    28   13   15 1    
    29   14   83 1    
    30   15   16 1    
    31   15   84 1    
    32   15   85 1    
    33   16   17 1    
    34   17   18 1    
    35   17   86 1    
    36   17   87 1    
    37   18   19 1    
    38   18   37 1    
    39   18   88 1    
    40   19   20 am   BACKBONE|DICT|INTERRES
    41   19   89 1    
    42   20   21 2    
    43   20   22 1    
    44   22   23 1    
    45   22   24 1    
    46   22   90 1    
    47   23   91 1    
    48   23   92 1    
    49   23   93 1    
    50   24   25 am   BACKBONE|DICT|INTERRES
    51   24   94 1    
    52   25   26 2    
    53   25   27 1    
    54   27   28 1    
    55   27   29 1    
    56   27   95 1    
    57   28   96 1    
    58   28   97 1    
    59   28   98 1    
    60   29   30 am   BACKBONE|DICT|INTERRES
    61   29   99 1    
    62   30   31 2    
    63   30   32 1    
    64   32   33 1    
    65   32   34 1    
    66   32  100 1    
    67   33  101 1    
    68   33  102 1    
    69   33  103 1    
    70   34   35 am   BACKBONE|DICT|INTERRES
    71   34  104 1    
    72   35   36 2    
    73   37   38 2    
    74   37   39 am   BACKBONE|DICT|INTERRES
    75   39   40 1    
    76   39  105 1    
    77   40   41 1    
    78   40   42 1    
    79   40  106 1    
    80   41  107 1    
    81   41  108 1    
    82   41  109 1    
    83   42   43 2    
    84   42   44 am   BACKBONE|DICT|INTERRES
    85   44   45 1    
    86   44  110 1    
    87   45   46 1    
    88   45   47 1    
    89   45  111 1    
    90   46  112 1    
    91   46  113 1    
    92   46  114 1    
    93   47   48 2    
    94   47   49 am   BACKBONE|DICT|INTERRES
    95   49   50 1    
    96   49  115 1    
    97   50   51 1    
    98   50   52 1    
    99   50  116 1    
   100   51  117 1    
   101   51  118 1    
   102   51  119 1    
   103   52   53 2    
   104   52   54 am   BACKBONE|DICT|INTERRES
   105   54   55 1    
   106   54  120 1    
   107   55   56 1    
   108   55   57 1    
   109   55  121 1    
   110   56  122 1    
   111   56  123 1    
   112   56  124 1    
   113   57   58 2    
   114   57   59 am   BACKBONE|DICT|INTERRES
   115   59   60 1    
   116   59  125 1    
   117   60   61 1    
   118   60   62 1    
   119   60  126 1    
   120   61  127 1    
   121   61  128 1    
   122   61  129 1    
   123   62   63 2    
   124   62   64 am   BACKBONE|DICT|INTERRES
   125   64   65 1    
   126   64  130 1    
   127   65   66 1    
   128   65   69 1    
   129   65  131 1    
   130   66   67 am   BACKBONE|DICT|INTERRES
   131   66   68 2    
   132   67  132 1    
   133   67  133 1    
   134   69   70 1    
   135   69  134 1    
   136   69  135 1    
   137   70   71 1    
   138   71  136 1    
   139   71  137 1    
@<TRIPOS>SUBSTRUCTURE
     1 UNK         1 GROUP             0       ****    0 ROOT    
