@<TRIPOS>MOLECULE
3R137
137   139    1
SMALL
USER_CHARGES


@<TRIPOS>ATOM
      1 CA         25.9238   -6.3266   -0.8247 C.3       0 UNK        -0.2020 
      2 C          26.6310   -4.9807   -0.8616 C.2       0 UNK         0.4855 
      3 O          26.3519   -4.1166   -0.0291 O.2       0 UNK        -0.5197 
      4 N          27.5393   -4.7861   -1.8259 N.am      1 UNK        -0.4892 
      5 CA         28.3285   -3.5638   -2.0229 C.3       1 UNK         0.0835 
      6 C6         29.6458   -3.8551   -2.7837 C.3       12 UNK        -0.0855 
      7 S7         30.8435   -4.7873   -1.7624 S.3       12 UNK        -0.2931 
      8 C8         31.4302   -3.5350   -0.5611 C.3       12 UNK         0.0378 
      9 C9         31.7631   -2.2090   -1.2294 C.ar      12 UNK        -0.0802 
     10 C10        32.8647   -2.1176   -2.0825 C.ar      12 UNK        -0.0944 
     11 C11        33.0954   -0.9549   -2.8256 C.ar      12 UNK        -0.0787 
     12 C12        32.2537    0.1474   -2.6459 C.ar      12 UNK        -0.0862 
     13 C13        31.1621    0.0778   -1.7745 C.ar      12 UNK        -0.0733 
     14 C14        30.9250   -1.1016   -1.0636 C.ar      12 UNK        -0.0832 
     15 C15        30.2186    1.2633   -1.6230 C.3       12 UNK         0.0240 
     16 S16        28.7772    1.1278   -2.7305 S.3       12 UNK        -0.2522 
     17 C17        29.5447    1.4830   -4.3449 C.3       12 UNK        -0.0967 
     18 CA         28.5810    1.4764   -5.5543 C.3       5 UNK         0.0660 
     19 N          28.0118    0.1549   -5.8354 N.am      5 UNK        -0.4015 
     20 C          27.5561   -0.1918   -7.0484 C.2       4 UNK         0.4946 
     21 O          27.3708    0.6143   -7.9610 O.2       4 UNK        -0.5353 
     22 CA         27.2799   -1.6793   -7.2972 C.3       4 UNK         0.0277 
     23 CB         28.5721   -2.5090   -7.1910 C.3       4 UNK        -0.1981 
     24 N          26.2845   -2.1744   -6.3540 N.am      4 UNK        -0.4209 
     25 C          24.9691   -2.2321   -6.6072 C.2       3 UNK         0.4942 
     26 O          24.4704   -2.0027   -7.7097 O.2       3 UNK        -0.5208 
     27 CA         24.0372   -2.5916   -5.4330 C.3       3 UNK         0.0250 
     28 CB         23.6964   -4.0906   -5.4576 C.3       3 UNK        -0.1990 
     29 N          24.5670   -2.2426   -4.1114 N.am      3 UNK        -0.4232 
     30 C          24.9295   -1.0117   -3.7230 C.2       2 UNK         0.4993 
     31 O          24.8523   -0.0134   -4.4356 O.2       2 UNK        -0.5286 
     32 CA         25.5616   -0.8859   -2.3311 C.3       2 UNK         0.0209 
     33 CB         24.4749   -0.7333   -1.2559 C.3       2 UNK        -0.1931 
     34 N          26.4536   -1.9946   -1.9743 N.am      2 UNK        -0.4546 
     35 C          27.4913   -2.4523   -2.6905 C.2       1 UNK         0.5154 
     36 O          27.7740   -2.0498   -3.8230 O.2       1 UNK        -0.5181 
     37 C          27.5560    2.6293   -5.5328 C.2       5 UNK         0.5014 
     38 O          27.9191    3.7370   -5.9318 O.2       5 UNK        -0.5248 
     39 N          26.2959    2.3762   -5.1402 N.am      6 UNK        -0.4434 
     40 CA         25.2243    3.3821   -5.2008 C.3       6 UNK         0.0363 
     41 CB         24.0693    2.9986   -4.2619 C.3       6 UNK        -0.1936 
     42 C          24.7087    3.6011   -6.6346 C.2       6 UNK         0.5081 
     43 O          24.1780    4.6722   -6.9279 O.2       6 UNK        -0.5248 
     44 N          24.9046    2.6047   -7.5097 N.am      7 UNK        -0.4718 
     45 CA         24.6579    2.6894   -8.9517 C.3       7 UNK         0.0273 
     46 CB         24.2988    1.2876   -9.4755 C.3       7 UNK        -0.1935 
     47 C          25.8593    3.2763   -9.7221 C.2       7 UNK         0.5018 
     48 O          25.7698    3.4226  -10.9417 O.2       7 UNK        -0.5186 
     49 N          26.9528    3.5897   -9.0078 N.am      8 UNK        -0.4240 
     50 CA         28.2383    4.1017   -9.4940 C.3       8 UNK         0.0235 
     51 CB         28.0754    5.4961  -10.1369 C.3       8 UNK        -0.2000 
     52 C          29.0005    3.1072  -10.3929 C.2       8 UNK         0.4941 
     53 O          29.7835    3.5352  -11.2439 O.2       8 UNK        -0.5273 
     54 N          28.7835    1.8029  -10.1808 N.am      9 UNK        -0.4262 
     55 CA         29.5308    0.7232  -10.8221 C.3       9 UNK         0.0264 
     56 CB         28.5847   -0.4671  -11.0524 C.3       9 UNK        -0.1955 
     57 C          30.7136    0.3094   -9.9336 C.2       9 UNK         0.5031 
     58 O          30.7082    0.5754   -8.7280 O.2       9 UNK        -0.5390 
     59 N          31.7001   -0.3622  -10.5403 N.am      10 UNK        -0.4204 
     60 CA         32.8320   -0.9661   -9.8352 C.3       10 UNK         0.0237 
     61 CB         33.9001   -1.3976  -10.8535 C.3       10 UNK        -0.1985 
     62 C          32.3667   -2.1647   -8.9929 C.2       10 UNK         0.4970 
     63 O          31.5861   -2.9830   -9.4849 O.2       10 UNK        -0.4914 
     64 N          32.8563   -2.2461   -7.7519 N.am      11 UNK        -0.4285 
     65 CA         32.5002   -3.2981   -6.7887 C.3       11 UNK         0.1007 
     66 C          33.1590   -4.6872   -7.0404 C.2       11 UNK         0.5703 
     67 N          34.1144   -4.8160   -7.9541 N.am      11 UNK        -0.7361 
     68 O          32.7826   -5.6698   -6.4062 O.2       11 UNK        -0.4986 
     69 C69        32.6732   -2.8063   -5.3297 C.3       12 UNK        -0.0947 
     70 S70        34.3992   -2.4093   -4.8643 S.3       12 UNK        -0.2240 
     71 C71        34.2142   -0.8883   -3.8636 C.3       12 UNK         0.0194 
     72 H72        24.8488   -6.1888   -0.9378 H         1 UNK         0.0906 
     73 H73        26.2665   -6.9902   -1.6184 H         1 UNK         0.0906 
     74 H74        26.1056   -6.8187    0.1304 H         1 UNK         0.0906 
     75 H75        27.7239   -5.5290   -2.4855 H         1 UNK         0.3140 
     76 H76        28.5965   -3.1712   -1.0404 H         1 UNK         0.1085 
     77 H77        30.1210   -2.9373   -3.1336 H         1 UNK         0.0836 
     78 H78        29.4421   -4.4285   -3.6898 H         1 UNK         0.0836 
     79 H79        32.3166   -3.9183   -0.0537 H         1 UNK         0.0731 
     80 H80        30.6736   -3.3989    0.2130 H         1 UNK         0.0731 
     81 H81        33.4997   -2.9819   -2.2206 H         1 UNK         0.1312 
     82 H82        32.4275    1.0530   -3.2110 H         1 UNK         0.1406 
     83 H83        30.0656   -1.1649   -0.4102 H         1 UNK         0.1631 
     84 H84        30.7435    2.2004   -1.8152 H         1 UNK         0.0717 
     85 H85        29.8645    1.3206   -0.5927 H         1 UNK         0.0717 
     86 H86        30.0578    2.4447   -4.2815 H         1 UNK         0.0934 
     87 H87        30.3249    0.7423   -4.5227 H         1 UNK         0.0934 
     88 H88        29.2185    1.6985   -6.4146 H         1 UNK         0.0739 
     89 H89        28.0855   -0.5456   -5.1031 H         1 UNK         0.3093 
     90 H90        26.9063   -1.7822   -8.3180 H         1 UNK         0.0818 
     91 H91        28.9984   -2.4882   -6.1876 H         1 UNK         0.0819 
     92 H92        28.3936   -3.5514   -7.4546 H         1 UNK         0.0819 
     93 H93        29.3325   -2.1286   -7.8749 H         1 UNK         0.0819 
     94 H94        26.6072   -2.3301   -5.4042 H         1 UNK         0.3041 
     95 H95        23.1137   -2.0257   -5.5716 H         1 UNK         0.0784 
     96 H96        23.2741   -4.3789   -6.4215 H         1 UNK         0.0793 
     97 H97        24.5800   -4.7081   -5.2914 H         1 UNK         0.0793 
     98 H98        22.9593   -4.3439   -4.6954 H         1 UNK         0.0793 
     99 H99        24.6913   -3.0001   -3.4560 H         1 UNK         0.3024 
    100 H100       26.1599    0.0258   -2.3355 H         1 UNK         0.1171 
    101 H101       24.9112   -0.5243   -0.2789 H         1 UNK         0.0786 
    102 H102       23.8042    0.0943   -1.4927 H         1 UNK         0.0786 
    103 H103       23.8655   -1.6334   -1.1654 H         1 UNK         0.0786 
    104 H104       26.2778   -2.4553   -1.0855 H         1 UNK         0.2977 
    105 H105       26.0217    1.4376   -4.8569 H         1 UNK         0.3127 
    106 H106       25.6300    4.3331   -4.8483 H         1 UNK         0.0770 
    107 H107       23.5035    2.1470   -4.6402 H         1 UNK         0.0814 
    108 H108       23.3668    3.8265   -4.1594 H         1 UNK         0.0814 
    109 H109       24.4287    2.7507   -3.2631 H         1 UNK         0.0814 
    110 H110       25.3691    1.7656   -7.1874 H         1 UNK         0.2983 
    111 H111       23.8059    3.3483   -9.1331 H         1 UNK         0.0947 
    112 H112       24.0438    1.3191  -10.5355 H         1 UNK         0.0806 
    113 H113       23.4384    0.8744   -8.9488 H         1 UNK         0.0806 
    114 H114       25.1259    0.5861   -9.3624 H         1 UNK         0.0806 
    115 H115       26.9160    3.4122   -8.0126 H         1 UNK         0.3000 
    116 H116       28.8592    4.2252   -8.6053 H         1 UNK         0.0850 
    117 H117       29.0464    5.9447  -10.3499 H         1 UNK         0.0810 
    118 H118       27.5440    6.1790   -9.4740 H         1 UNK         0.0810 
    119 H119       27.5283    5.4472  -11.0788 H         1 UNK         0.0810 
    120 H120       28.1883    1.5211   -9.4038 H         1 UNK         0.3040 
    121 H121       29.9139    1.0560  -11.7892 H         1 UNK         0.0766 
    122 H122       27.7191   -0.1759  -11.6477 H         1 UNK         0.0812 
    123 H123       28.2196   -0.8791  -10.1124 H         1 UNK         0.0812 
    124 H124       29.0888   -1.2742  -11.5851 H         1 UNK         0.0812 
    125 H125       31.6139   -0.5753  -11.5236 H         1 UNK         0.3205 
    126 H126       33.2662   -0.2104   -9.1765 H         1 UNK         0.0754 
    127 H127       34.7699   -1.8225  -10.3507 H         1 UNK         0.0769 
    128 H128       34.2512   -0.5508  -11.4438 H         1 UNK         0.0769 
    129 H129       33.5206   -2.1535  -11.5427 H         1 UNK         0.0769 
    130 H130       33.5117   -1.5525   -7.4234 H         1 UNK         0.2981 
    131 H131       31.4311   -3.4810   -6.9124 H         1 UNK         0.0541 
    132 H132       34.4299   -4.0173   -8.4792 H         1 UNK         0.3459 
    133 H133       34.5275   -5.7214   -8.1119 H         1 UNK         0.3459 
    134 H134       32.0491   -1.9238   -5.1805 H         1 UNK         0.0612 
    135 H135       32.2940   -3.5533   -4.6298 H         1 UNK         0.0612 
    136 H136       34.0450   -0.0562   -4.5488 H         1 UNK         0.0624 
    137 H137       35.1571   -0.6850   -3.3547 H         1 UNK         0.0624 
@<TRIPOS>BOND
     1    1    2 1    
     2    1   72 1    
     3    1   73 1    
     4    1   74 1    
     5    2    3 2    
     6    2    4 am   BACKBONE|DICT|INTERRES
     7    4    5 1    
     8    4   75 1    
     9    5    6 1    
    10    5   35 1    
    11    5   76 1    
    12    6    7 1    
    13    6   77 1    
    14    6   78 1    
    15    7    8 1    
    16    8    9 1    
    17    8   79 1    
    18    8   80 1    
    19    9   10 ar   
    20    9   14 ar   
    21   10   11 ar   
    22   10   81 1    
    23   11   12 ar   
    24   11   71 1    
    25   12   13 ar   
    26   12   82 1    
    27   13   14 ar   
    28   13   15 1    
    29   14   83 1    
    30   15   16 1    
    31   15   84 1    
    32   15   85 1    
    33   16   17 1    
    34   17   18 1    
    35   17   86 1    
    36   17   87 1    
    37   18   19 1    
    38   18   37 1    
    39   18   88 1    
    40   19   20 am   BACKBONE|DICT|INTERRES
    41   19   89 1    
    42   20   21 2    
    43   20   22 1    
    44   22   23 1    
    45   22   24 1    
    46   22   90 1    
    47   23   91 1    
    48   23   92 1    
    49   23   93 1    
    50   24   25 am   BACKBONE|DICT|INTERRES
    51   24   94 1    
    52   25   26 2    
    53   25   27 1    
    54   27   28 1    
    55   27   29 1    
    56   27   95 1    
    57   28   96 1    
    58   28   97 1    
    59   28   98 1    
    60   29   30 am   BACKBONE|DICT|INTERRES
    61   29   99 1    
    62   30   31 2    
    63   30   32 1    
    64   32   33 1    
    65   32   34 1    
    66   32  100 1    
    67   33  101 1    
    68   33  102 1    
    69   33  103 1    
    70   34   35 am   BACKBONE|DICT|INTERRES
    71   34  104 1    
    72   35   36 2    
    73   37   38 2    
    74   37   39 am   BACKBONE|DICT|INTERRES
    75   39   40 1    
    76   39  105 1    
    77   40   41 1    
    78   40   42 1    
    79   40  106 1    
    80   41  107 1    
    81   41  108 1    
    82   41  109 1    
    83   42   43 2    
    84   42   44 am   BACKBONE|DICT|INTERRES
    85   44   45 1    
    86   44  110 1    
    87   45   46 1    
    88   45   47 1    
    89   45  111 1    
    90   46  112 1    
    91   46  113 1    
    92   46  114 1    
    93   47   48 2    
    94   47   49 am   BACKBONE|DICT|INTERRES
    95   49   50 1    
    96   49  115 1    
    97   50   51 1    
    98   50   52 1    
    99   50  116 1    
   100   51  117 1    
   101   51  118 1    
   102   51  119 1    
   103   52   53 2    
   104   52   54 am   BACKBONE|DICT|INTERRES
   105   54   55 1    
   106   54  120 1    
   107   55   56 1    
   108   55   57 1    
   109   55  121 1    
   110   56  122 1    
   111   56  123 1    
   112   56  124 1    
   113   57   58 2    
   114   57   59 am   BACKBONE|DICT|INTERRES
   115   59   60 1    
   116   59  125 1    
   117   60   61 1    
   118   60   62 1    
   119   60  126 1    
   120   61  127 1    
   121   61  128 1    
   122   61  129 1    
   123   62   63 2    
   124   62   64 am   BACKBONE|DICT|INTERRES
   125   64   65 1    
   126   64  130 1    
   127   65   66 1    
   128   65   69 1    
   129   65  131 1    
   130   66   67 am   BACKBONE|DICT|INTERRES
   131   66   68 2    
   132   67  132 1    
   133   67  133 1    
   134   69   70 1    
   135   69  134 1    
   136   69  135 1    
   137   70   71 1    
   138   71  136 1    
   139   71  137 1    
@<TRIPOS>SUBSTRUCTURE
     1 UNK         1 GROUP             0       ****    0 ROOT    
