@<TRIPOS>MOLECULE
3R137
137   139    1
SMALL
USER_CHARGES


@<TRIPOS>ATOM
      1 CA         27.6732   -6.6343    1.2487 C.3       0 UNK        -0.2020 
      2 C          27.4252   -5.2871    0.5870 C.2       0 UNK         0.4855 
      3 O          27.9066   -5.0686   -0.5245 O.2       0 UNK        -0.5197 
      4 N          26.6680   -4.4102    1.2662 N.am      1 UNK        -0.4892 
      5 CA         26.2523   -3.0272    0.9501 C.3       1 UNK         0.0835 
      6 C6         27.3207   -1.9316    1.2399 C.3       12 UNK        -0.0855 
      7 S7         28.9431   -2.1315    0.4301 S.3       12 UNK        -0.2931 
      8 C8         28.7472   -1.0872   -1.0431 C.3       12 UNK         0.0378 
      9 C9         29.8785   -1.3309   -2.0285 C.ar      12 UNK        -0.0802 
     10 C10        30.9216   -0.4098   -2.1605 C.ar      12 UNK        -0.0944 
     11 C11        31.9705   -0.6489   -3.0546 C.ar      12 UNK        -0.0787 
     12 C12        31.9686   -1.8213   -3.8172 C.ar      12 UNK        -0.0862 
     13 C13        30.9153   -2.7344   -3.7158 C.ar      12 UNK        -0.0733 
     14 C14        29.8772   -2.4870   -2.8128 C.ar      12 UNK        -0.0832 
     15 C15        30.9105   -3.9962   -4.5677 C.3       12 UNK         0.0240 
     16 S16        30.4003   -3.6692   -6.2869 S.3       12 UNK        -0.2522 
     17 C17        28.6336   -3.2553   -6.0822 C.3       12 UNK        -0.0967 
     18 CA         28.1649   -2.1043   -7.0032 C.3       5 UNK         0.0660 
     19 N          26.7118   -1.9541   -6.9995 N.am      5 UNK        -0.4015 
     20 C          26.0289   -1.2915   -7.9432 C.2       4 UNK         0.4946 
     21 O          26.5448   -0.8293   -8.9607 O.2       4 UNK        -0.5353 
     22 CA         24.5248   -1.0784   -7.6993 C.3       4 UNK         0.0277 
     23 CB         23.7135   -2.2422   -8.2895 C.3       4 UNK        -0.1981 
     24 N          24.1924   -0.9140   -6.2806 N.am      4 UNK        -0.4209 
     25 C          24.5864    0.1255   -5.5301 C.2       3 UNK         0.4942 
     26 O          25.2212    1.0815   -5.9706 O.2       3 UNK        -0.5208 
     27 CA         24.2650    0.0687   -4.0276 C.3       3 UNK         0.0250 
     28 CB         22.8805    0.6743   -3.7495 C.3       3 UNK        -0.1990 
     29 N          24.3377   -1.2807   -3.4575 N.am      3 UNK        -0.4232 
     30 C          25.4345   -2.0506   -3.4447 C.2       2 UNK         0.4993 
     31 O          26.5126   -1.7141   -3.9408 O.2       2 UNK        -0.5286 
     32 CA         25.2950   -3.4370   -2.7934 C.3       2 UNK         0.0209 
     33 CB         25.9291   -4.5319   -3.6689 C.3       2 UNK        -0.1931 
     34 N          25.8994   -3.4862   -1.4622 N.am      2 UNK        -0.4546 
     35 C          25.5013   -2.8022   -0.3847 C.2       1 UNK         0.5154 
     36 O          24.5418   -2.0292   -0.3991 O.2       1 UNK        -0.5181 
     37 C          28.8289   -0.7523   -6.6781 C.2       5 UNK         0.5014 
     38 O          29.6846   -0.3041   -7.4403 O.2       5 UNK        -0.5248 
     39 N          28.3867   -0.1119   -5.5860 N.am      6 UNK        -0.4434 
     40 CA         28.8966    1.1749   -5.1083 C.3       6 UNK         0.0363 
     41 CB         28.1856    1.5546   -3.7996 C.3       6 UNK        -0.1936 
     42 C          28.7647    2.3181   -6.1298 C.2       6 UNK         0.5081 
     43 O          29.7445    3.0195   -6.3809 O.2       6 UNK        -0.5248 
     44 N          27.5552    2.5002   -6.6756 N.am      7 UNK        -0.4718 
     45 CA         27.2222    3.5898   -7.5889 C.3       7 UNK         0.0273 
     46 CB         25.7680    4.0419   -7.3565 C.3       7 UNK        -0.1935 
     47 C          27.4794    3.1968   -9.0483 C.2       7 UNK         0.5018 
     48 O          28.4435    3.6829   -9.6386 O.2       7 UNK        -0.5186 
     49 N          26.6018    2.3558   -9.6158 N.am      8 UNK        -0.4240 
     50 CA         26.5399    2.0645  -11.0530 C.3       8 UNK         0.0235 
     51 CB         25.2719    1.2576  -11.3792 C.3       8 UNK        -0.2000 
     52 C          27.7979    1.3828  -11.6140 C.2       8 UNK         0.4941 
     53 O          28.2724    1.7874  -12.6763 O.2       8 UNK        -0.5273 
     54 N          28.3341    0.3919  -10.8889 N.am      9 UNK        -0.4262 
     55 CA         29.5887   -0.2823  -11.2436 C.3       9 UNK         0.0264 
     56 CB         29.5792   -1.7202  -10.7003 C.3       9 UNK        -0.1955 
     57 C          30.8428    0.4696  -10.7566 C.2       9 UNK         0.5031 
     58 O          31.9487    0.0342  -11.0812 O.2       9 UNK        -0.5390 
     59 N          30.6695    1.5509   -9.9786 N.am      10 UNK        -0.4204 
     60 CA         31.7105    2.4047   -9.3887 C.3       10 UNK         0.0237 
     61 CB         32.3563    3.2827  -10.4813 C.3       10 UNK        -0.1985 
     62 C          32.7482    1.6228   -8.5550 C.2       10 UNK         0.4970 
     63 O          33.9472    1.8901   -8.6580 O.2       10 UNK        -0.4914 
     64 N          32.2622    0.6495   -7.7756 N.am      11 UNK        -0.4285 
     65 CA         33.0276   -0.3321   -6.9932 C.3       11 UNK         0.1007 
     66 C          33.7850   -1.3970   -7.8438 C.2       11 UNK         0.5703 
     67 N          33.5975   -1.4788   -9.1564 N.am      11 UNK        -0.7361 
     68 O          34.5392   -2.1981   -7.2965 O.2       11 UNK        -0.4986 
     69 C69        33.9291    0.3041   -5.8940 C.3       12 UNK        -0.0947 
     70 S70        33.0079    1.3379   -4.7024 S.3       12 UNK        -0.2240 
     71 C71        33.1131    0.3503   -3.1741 C.3       12 UNK         0.0194 
     72 H72        27.1939   -6.7079    2.2247 H         1 UNK         0.0906 
     73 H73        27.2881   -7.4369    0.6202 H         1 UNK         0.0906 
     74 H74        28.7429   -6.7919    1.3843 H         1 UNK         0.0906 
     75 H75        26.3076   -4.7289    2.1554 H         1 UNK         0.3140 
     76 H76        25.4714   -2.8493    1.6922 H         1 UNK         0.1085 
     77 H77        26.9260   -0.9380    1.0169 H         1 UNK         0.0836 
     78 H78        27.5157   -1.9182    2.3133 H         1 UNK         0.0836 
     79 H79        28.7126   -0.0398   -0.7399 H         1 UNK         0.0731 
     80 H80        27.7960   -1.3018   -1.5295 H         1 UNK         0.0731 
     81 H81        30.9212    0.4892   -1.5596 H         1 UNK         0.1312 
     82 H82        32.7834   -2.0230   -4.4977 H         1 UNK         0.1406 
     83 H83        29.0667   -3.1960   -2.7074 H         1 UNK         0.1631 
     84 H84        30.2553   -4.7538   -4.1345 H         1 UNK         0.0717 
     85 H85        31.9117   -4.4295   -4.5760 H         1 UNK         0.0717 
     86 H86        28.0620   -4.1588   -6.3000 H         1 UNK         0.0934 
     87 H87        28.4250   -3.0163   -5.0420 H         1 UNK         0.0934 
     88 H88        28.4483   -2.3798   -8.0187 H         1 UNK         0.0739 
     89 H89        26.2331   -2.2335   -6.1553 H         1 UNK         0.3093 
     90 H90        24.2362   -0.1626   -8.2198 H         1 UNK         0.0818 
     91 H91        22.6416   -2.0648   -8.1995 H         1 UNK         0.0819 
     92 H92        23.9307   -2.3678   -9.3514 H         1 UNK         0.0819 
     93 H93        23.9413   -3.1880   -7.7964 H         1 UNK         0.0819 
     94 H94        23.6589   -1.6505   -5.8420 H         1 UNK         0.3041 
     95 H95        25.0105    0.6774   -3.5125 H         1 UNK         0.0784 
     96 H96        22.8121    1.6885   -4.1460 H         1 UNK         0.0793 
     97 H97        22.0821    0.0899   -4.2086 H         1 UNK         0.0793 
     98 H98        22.6815    0.7336   -2.6792 H         1 UNK         0.0793 
     99 H99        23.5080   -1.6154   -2.9878 H         1 UNK         0.3024 
    100 H100       24.2325   -3.6670   -2.6889 H         1 UNK         0.1171 
    101 H101       27.0132   -4.4304   -3.7203 H         1 UNK         0.0786 
    102 H102       25.7106   -5.5248   -3.2755 H         1 UNK         0.0786 
    103 H103       25.5447   -4.4961   -4.6890 H         1 UNK         0.0786 
    104 H104       26.7075   -4.0958   -1.3351 H         1 UNK         0.2977 
    105 H105       27.6853   -0.5690   -5.0090 H         1 UNK         0.3127 
    106 H106       29.9581    1.0363   -4.8939 H         1 UNK         0.0770 
    107 H107       27.1291    1.7701   -3.9595 H         1 UNK         0.0814 
    108 H108       28.6370    2.4431   -3.3567 H         1 UNK         0.0814 
    109 H109       28.2501    0.7556   -3.0655 H         1 UNK         0.0814 
    110 H110       26.7919    1.8793   -6.4086 H         1 UNK         0.2983 
    111 H111       27.8608    4.4490   -7.3698 H         1 UNK         0.0947 
    112 H112       25.4995    4.8539   -8.0337 H         1 UNK         0.0806 
    113 H113       25.6316    4.4117   -6.3401 H         1 UNK         0.0806 
    114 H114       25.0493    3.2372   -7.5111 H         1 UNK         0.0806 
    115 H115       25.8773    1.9547   -9.0387 H         1 UNK         0.3000 
    116 H116       26.4516    3.0268  -11.5623 H         1 UNK         0.0850 
    117 H117       25.1880    1.0864  -12.4532 H         1 UNK         0.0810 
    118 H118       24.3720    1.7876  -11.0669 H         1 UNK         0.0810 
    119 H119       25.2701    0.2807  -10.8973 H         1 UNK         0.0810 
    120 H120       27.8415    0.0671  -10.0582 H         1 UNK         0.3040 
    121 H121       29.6530   -0.3467  -12.3319 H         1 UNK         0.0766 
    122 H122       29.7989   -1.7449   -9.6352 H         1 UNK         0.0812 
    123 H123       30.3464   -2.3198  -11.1914 H         1 UNK         0.0812 
    124 H124       28.6217   -2.2141  -10.8668 H         1 UNK         0.0812 
    125 H125       29.7191    1.8356   -9.7767 H         1 UNK         0.3205 
    126 H126       31.1996    3.0694   -8.6909 H         1 UNK         0.0754 
    127 H127       33.0512    4.0024  -10.0469 H         1 UNK         0.0769 
    128 H128       31.6025    3.8508  -11.0267 H         1 UNK         0.0769 
    129 H129       32.9132    2.6837  -11.2028 H         1 UNK         0.0769 
    130 H130       31.2565    0.4817   -7.7693 H         1 UNK         0.2981 
    131 H131       32.2589   -0.9100   -6.4820 H         1 UNK         0.0541 
    132 H132       32.9889   -0.8333   -9.6494 H         1 UNK         0.3459 
    133 H133       34.0920   -2.1867   -9.6743 H         1 UNK         0.3459 
    134 H134       34.7065    0.9208   -6.3459 H         1 UNK         0.0612 
    135 H135       34.4628   -0.4707   -5.3427 H         1 UNK         0.0612 
    136 H136       33.0960    1.0384   -2.3276 H         1 UNK         0.0624 
    137 H137       34.0718   -0.1661   -3.1152 H         1 UNK         0.0624 
@<TRIPOS>BOND
     1    1    2 1    
     2    1   72 1    
     3    1   73 1    
     4    1   74 1    
     5    2    3 2    
     6    2    4 am   BACKBONE|DICT|INTERRES
     7    4    5 1    
     8    4   75 1    
     9    5    6 1    
    10    5   35 1    
    11    5   76 1    
    12    6    7 1    
    13    6   77 1    
    14    6   78 1    
    15    7    8 1    
    16    8    9 1    
    17    8   79 1    
    18    8   80 1    
    19    9   10 ar   
    20    9   14 ar   
    21   10   11 ar   
    22   10   81 1    
    23   11   12 ar   
    24   11   71 1    
    25   12   13 ar   
    26   12   82 1    
    27   13   14 ar   
    28   13   15 1    
    29   14   83 1    
    30   15   16 1    
    31   15   84 1    
    32   15   85 1    
    33   16   17 1    
    34   17   18 1    
    35   17   86 1    
    36   17   87 1    
    37   18   19 1    
    38   18   37 1    
    39   18   88 1    
    40   19   20 am   BACKBONE|DICT|INTERRES
    41   19   89 1    
    42   20   21 2    
    43   20   22 1    
    44   22   23 1    
    45   22   24 1    
    46   22   90 1    
    47   23   91 1    
    48   23   92 1    
    49   23   93 1    
    50   24   25 am   BACKBONE|DICT|INTERRES
    51   24   94 1    
    52   25   26 2    
    53   25   27 1    
    54   27   28 1    
    55   27   29 1    
    56   27   95 1    
    57   28   96 1    
    58   28   97 1    
    59   28   98 1    
    60   29   30 am   BACKBONE|DICT|INTERRES
    61   29   99 1    
    62   30   31 2    
    63   30   32 1    
    64   32   33 1    
    65   32   34 1    
    66   32  100 1    
    67   33  101 1    
    68   33  102 1    
    69   33  103 1    
    70   34   35 am   BACKBONE|DICT|INTERRES
    71   34  104 1    
    72   35   36 2    
    73   37   38 2    
    74   37   39 am   BACKBONE|DICT|INTERRES
    75   39   40 1    
    76   39  105 1    
    77   40   41 1    
    78   40   42 1    
    79   40  106 1    
    80   41  107 1    
    81   41  108 1    
    82   41  109 1    
    83   42   43 2    
    84   42   44 am   BACKBONE|DICT|INTERRES
    85   44   45 1    
    86   44  110 1    
    87   45   46 1    
    88   45   47 1    
    89   45  111 1    
    90   46  112 1    
    91   46  113 1    
    92   46  114 1    
    93   47   48 2    
    94   47   49 am   BACKBONE|DICT|INTERRES
    95   49   50 1    
    96   49  115 1    
    97   50   51 1    
    98   50   52 1    
    99   50  116 1    
   100   51  117 1    
   101   51  118 1    
   102   51  119 1    
   103   52   53 2    
   104   52   54 am   BACKBONE|DICT|INTERRES
   105   54   55 1    
   106   54  120 1    
   107   55   56 1    
   108   55   57 1    
   109   55  121 1    
   110   56  122 1    
   111   56  123 1    
   112   56  124 1    
   113   57   58 2    
   114   57   59 am   BACKBONE|DICT|INTERRES
   115   59   60 1    
   116   59  125 1    
   117   60   61 1    
   118   60   62 1    
   119   60  126 1    
   120   61  127 1    
   121   61  128 1    
   122   61  129 1    
   123   62   63 2    
   124   62   64 am   BACKBONE|DICT|INTERRES
   125   64   65 1    
   126   64  130 1    
   127   65   66 1    
   128   65   69 1    
   129   65  131 1    
   130   66   67 am   BACKBONE|DICT|INTERRES
   131   66   68 2    
   132   67  132 1    
   133   67  133 1    
   134   69   70 1    
   135   69  134 1    
   136   69  135 1    
   137   70   71 1    
   138   71  136 1    
   139   71  137 1    
@<TRIPOS>SUBSTRUCTURE
     1 UNK         1 GROUP             0       ****    0 ROOT    
