@<TRIPOS>MOLECULE
3R137
137   139    1
SMALL
USER_CHARGES


@<TRIPOS>ATOM
      1 CA         27.8331   -6.8954    0.1443 C.3       0 UNK        -0.2020 
      2 C          26.9832   -5.7902    0.7529 C.2       0 UNK         0.4855 
      3 O          25.9943   -6.0774    1.4274 O.2       0 UNK        -0.5197 
      4 N          27.3601   -4.5264    0.5183 N.am      1 UNK        -0.4892 
      5 CA         26.6495   -3.3337    1.0005 C.3       1 UNK         0.0835 
      6 C6         27.5651   -2.0798    0.9918 C.3       12 UNK        -0.0855 
      7 S7         28.1328   -1.5725   -0.6713 S.3       12 UNK        -0.2931 
      8 C8         29.8081   -2.2868   -0.7242 C.3       12 UNK         0.0378 
      9 C9         30.3459   -2.3181   -2.1472 C.ar      12 UNK        -0.0802 
     10 C10        31.5234   -1.6422   -2.4803 C.ar      12 UNK        -0.0944 
     11 C11        32.0127   -1.6769   -3.7897 C.ar      12 UNK        -0.0787 
     12 C12        31.3029   -2.3727   -4.7735 C.ar      12 UNK        -0.0862 
     13 C13        30.1201   -3.0494   -4.4561 C.ar      12 UNK        -0.0733 
     14 C14        29.6643   -3.0371   -3.1340 C.ar      12 UNK        -0.0832 
     15 C15        29.3610   -3.7994   -5.5469 C.3       12 UNK         0.0240 
     16 S16        27.5456   -3.6157   -5.4254 S.3       12 UNK        -0.2522 
     17 C17        27.0691   -3.6201   -7.1904 C.3       12 UNK        -0.0967 
     18 CA         26.6318   -2.2327   -7.7241 C.3       5 UNK         0.0660 
     19 N          25.4721   -1.7041   -7.0034 N.am      5 UNK        -0.4015 
     20 C          24.7359   -0.6611   -7.4094 C.2       4 UNK         0.4946 
     21 O          24.9249   -0.0616   -8.4672 O.2       4 UNK        -0.5353 
     22 CA         23.6336   -0.1752   -6.4540 C.3       4 UNK         0.0277 
     23 CB         22.3298   -0.9521   -6.6934 C.3       4 UNK        -0.1981 
     24 N          24.0058   -0.2679   -5.0391 N.am      4 UNK        -0.4209 
     25 C          25.0393    0.3583   -4.4632 C.2       3 UNK         0.4942 
     26 O          25.8097    1.0909   -5.0822 O.2       3 UNK        -0.5208 
     27 CA         25.2845    0.1180   -2.9616 C.3       3 UNK         0.0250 
     28 CB         24.4766    1.1132   -2.1079 C.3       3 UNK        -0.1990 
     29 N          25.0864   -1.2650   -2.4977 N.am      3 UNK        -0.4232 
     30 C          23.9619   -1.9983   -2.4580 C.2       2 UNK         0.4993 
     31 O          22.8723   -1.6105   -2.8809 O.2       2 UNK        -0.5286 
     32 CA         24.0682   -3.4194   -1.8777 C.3       2 UNK         0.0209 
     33 CB         24.1500   -4.4527   -3.0137 C.3       2 UNK        -0.1931 
     34 N          25.2139   -3.6022   -0.9829 N.am      2 UNK        -0.4546 
     35 C          25.3224   -3.0805    0.2489 C.2       1 UNK         0.5154 
     36 O          24.4357   -2.4169    0.7884 O.2       1 UNK        -0.5181 
     37 C          27.7958   -1.2185   -7.7751 C.2       5 UNK         0.5014 
     38 O          28.4044   -1.0591   -8.8320 O.2       5 UNK        -0.5248 
     39 N          28.0473   -0.5270   -6.6526 N.am      6 UNK        -0.4434 
     40 CA         29.0606    0.5218   -6.5152 C.3       6 UNK         0.0363 
     41 CB         29.2703    0.8412   -5.0259 C.3       6 UNK        -0.1936 
     42 C          28.6991    1.7967   -7.2955 C.2       6 UNK         0.5081 
     43 O          29.5951    2.4925   -7.7714 O.2       6 UNK        -0.5248 
     44 N          27.3960    2.0831   -7.4213 N.am      7 UNK        -0.4718 
     45 CA         26.8696    3.1511   -8.2712 C.3       7 UNK         0.0273 
     46 CB         25.4086    3.4426   -7.8928 C.3       7 UNK        -0.1935 
     47 C          26.9981    2.8132   -9.7671 C.2       7 UNK         0.5018 
     48 O          27.3454    3.6947  -10.5540 O.2       7 UNK        -0.5186 
     49 N          26.7203    1.5521  -10.1309 N.am      8 UNK        -0.4240 
     50 CA         26.8191    1.0369  -11.4982 C.3       8 UNK         0.0235 
     51 CB         26.1162   -0.3273  -11.5923 C.3       8 UNK        -0.2000 
     52 C          28.2670    0.9403  -12.0079 C.2       8 UNK         0.4941 
     53 O          28.5306    1.3547  -13.1379 O.2       8 UNK        -0.5273 
     54 N          29.1718    0.4010  -11.1820 N.am      9 UNK        -0.4262 
     55 CA         30.5933    0.2497  -11.4795 C.3       9 UNK         0.0264 
     56 CB         30.8979   -1.2288  -11.7794 C.3       9 UNK        -0.1955 
     57 C          31.3869    0.7576  -10.2723 C.2       9 UNK         0.5031 
     58 O          31.3578    0.1178   -9.2201 O.2       9 UNK        -0.5390 
     59 N          32.0599    1.9040  -10.4432 N.am      10 UNK        -0.4204 
     60 CA         32.8182    2.6068   -9.4038 C.3       10 UNK         0.0237 
     61 CB         33.4071    3.8996   -9.9923 C.3       10 UNK        -0.1985 
     62 C          33.9289    1.7478   -8.7747 C.2       10 UNK         0.4970 
     63 O          34.6509    1.0551   -9.4965 O.2       10 UNK        -0.4914 
     64 N          34.0407    1.8302   -7.4450 N.am      11 UNK        -0.4285 
     65 CA         35.0176    1.1040   -6.6232 C.3       11 UNK         0.1007 
     66 C          36.4858    1.5135   -6.9232 C.2       11 UNK         0.5703 
     67 N          37.4214    0.5774   -6.8376 N.am      11 UNK        -0.7361 
     68 O          36.7877    2.6761   -7.1885 O.2       11 UNK        -0.4986 
     69 C69        34.7065    1.2600   -5.1113 C.3       12 UNK        -0.0947 
     70 S70        33.0134    0.7363   -4.6767 S.3       12 UNK        -0.2240 
     71 C71        33.3136   -0.9721   -4.1406 C.3       12 UNK         0.0194 
     72 H72        27.2289   -7.5074   -0.5250 H         1 UNK         0.0906 
     73 H73        28.6738   -6.4993   -0.4250 H         1 UNK         0.0906 
     74 H74        28.2291   -7.5390    0.9294 H         1 UNK         0.0906 
     75 H75        28.1822   -4.3474   -0.0386 H         1 UNK         0.3140 
     76 H76        26.3720   -3.5204    2.0408 H         1 UNK         0.1085 
     77 H77        28.4315   -2.2497    1.6331 H         1 UNK         0.0836 
     78 H78        27.0403   -1.2333    1.4393 H         1 UNK         0.0836 
     79 H79        30.4611   -1.7061   -0.0706 H         1 UNK         0.0731 
     80 H80        29.7995   -3.3032   -0.3305 H         1 UNK         0.0731 
     81 H81        32.0636   -1.0919   -1.7219 H         1 UNK         0.1312 
     82 H82        31.6747   -2.3839   -5.7893 H         1 UNK         0.1406 
     83 H83        28.7595   -3.5680   -2.8733 H         1 UNK         0.1631 
     84 H84        29.6158   -4.8587   -5.4983 H         1 UNK         0.0717 
     85 H85        29.6936   -3.4436   -6.5232 H         1 UNK         0.0717 
     86 H86        27.8759   -4.0275   -7.8026 H         1 UNK         0.0934 
     87 H87        26.2448   -4.3256   -7.3059 H         1 UNK         0.0934 
     88 H88        26.3111   -2.3813   -8.7578 H         1 UNK         0.0739 
     89 H89        25.2569   -2.1376   -6.1178 H         1 UNK         0.3093 
     90 H90        23.4508    0.8782   -6.6755 H         1 UNK         0.0818 
     91 H91        21.5144   -0.5525   -6.0901 H         1 UNK         0.0819 
     92 H92        22.0216   -0.8852   -7.7379 H         1 UNK         0.0819 
     93 H93        22.4381   -2.0100   -6.4509 H         1 UNK         0.0819 
     94 H94        23.4094   -0.8242   -4.4285 H         1 UNK         0.3041 
     95 H95        26.3416    0.3288   -2.7895 H         1 UNK         0.0784 
     96 H96        24.7016    2.1419   -2.3927 H         1 UNK         0.0793 
     97 H97        23.4015    0.9726   -2.2239 H         1 UNK         0.0793 
     98 H98        24.7160    1.0100   -1.0494 H         1 UNK         0.0793 
     99 H99        25.9218   -1.7055   -2.1355 H         1 UNK         0.3024 
    100 H100       23.1552   -3.6035   -1.3064 H         1 UNK         0.1171 
    101 H101       23.2965   -4.3620   -3.6874 H         1 UNK         0.0786 
    102 H102       24.1450   -5.4711   -2.6245 H         1 UNK         0.0786 
    103 H103       25.0527   -4.3263   -3.6127 H         1 UNK         0.0786 
    104 H104       25.9871   -4.1494   -1.3316 H         1 UNK         0.2977 
    105 H105       27.4760   -0.7065   -5.8402 H         1 UNK         0.3127 
    106 H106       30.0003    0.1369   -6.9164 H         1 UNK         0.0770 
    107 H107       29.5570   -0.0460   -4.4622 H         1 UNK         0.0814 
    108 H108       28.3737    1.2552   -4.5655 H         1 UNK         0.0814 
    109 H109       30.0660    1.5758   -4.8981 H         1 UNK         0.0814 
    110 H110       26.7258    1.5159   -6.9132 H         1 UNK         0.2983 
    111 H111       27.4541    4.0545   -8.0830 H         1 UNK         0.0947 
    112 H112       25.0172    4.2794   -8.4725 H         1 UNK         0.0806 
    113 H113       25.3169    3.7055   -6.8387 H         1 UNK         0.0806 
    114 H114       24.7608    2.5865   -8.0807 H         1 UNK         0.0806 
    115 H115       26.3667    0.9115   -9.4262 H         1 UNK         0.3000 
    116 H116       26.2871    1.7322  -12.1512 H         1 UNK         0.0850 
    117 H117       26.1549   -0.7173  -12.6102 H         1 UNK         0.0810 
    118 H118       25.0650   -0.2511  -11.3135 H         1 UNK         0.0810 
    119 H119       26.5811   -1.0676  -10.9408 H         1 UNK         0.0810 
    120 H120       28.8811    0.0610  -10.2652 H         1 UNK         0.3040 
    121 H121       30.8709    0.8405  -12.3551 H         1 UNK         0.0766 
    122 H122       31.9624   -1.3783  -11.9634 H         1 UNK         0.0812 
    123 H123       30.3616   -1.5706  -12.6647 H         1 UNK         0.0812 
    124 H124       30.6145   -1.8749  -10.9471 H         1 UNK         0.0812 
    125 H125       32.0367    2.3440  -11.3514 H         1 UNK         0.3205 
    126 H126       32.1073    2.8804   -8.6219 H         1 UNK         0.0754 
    127 H127       33.9606    4.4568   -9.2350 H         1 UNK         0.0769 
    128 H128       32.6244    4.5588  -10.3687 H         1 UNK         0.0769 
    129 H129       34.0968    3.6917  -10.8116 H         1 UNK         0.0769 
    130 H130       33.4087    2.4302   -6.9369 H         1 UNK         0.2981 
    131 H131       34.9128    0.0475   -6.8784 H         1 UNK         0.0541 
    132 H132       37.1876   -0.3761   -6.6086 H         1 UNK         0.3459 
    133 H133       38.3818    0.8284   -7.0134 H         1 UNK         0.3459 
    134 H134       34.8206    2.3020   -4.8065 H         1 UNK         0.0612 
    135 H135       35.4184    0.6910   -4.5103 H         1 UNK         0.0612 
    136 H136       33.8300   -1.5143   -4.9343 H         1 UNK         0.0624 
    137 H137       33.9835   -0.9692   -3.2794 H         1 UNK         0.0624 
@<TRIPOS>BOND
     1    1    2 1    
     2    1   72 1    
     3    1   73 1    
     4    1   74 1    
     5    2    3 2    
     6    2    4 am   BACKBONE|DICT|INTERRES
     7    4    5 1    
     8    4   75 1    
     9    5    6 1    
    10    5   35 1    
    11    5   76 1    
    12    6    7 1    
    13    6   77 1    
    14    6   78 1    
    15    7    8 1    
    16    8    9 1    
    17    8   79 1    
    18    8   80 1    
    19    9   10 ar   
    20    9   14 ar   
    21   10   11 ar   
    22   10   81 1    
    23   11   12 ar   
    24   11   71 1    
    25   12   13 ar   
    26   12   82 1    
    27   13   14 ar   
    28   13   15 1    
    29   14   83 1    
    30   15   16 1    
    31   15   84 1    
    32   15   85 1    
    33   16   17 1    
    34   17   18 1    
    35   17   86 1    
    36   17   87 1    
    37   18   19 1    
    38   18   37 1    
    39   18   88 1    
    40   19   20 am   BACKBONE|DICT|INTERRES
    41   19   89 1    
    42   20   21 2    
    43   20   22 1    
    44   22   23 1    
    45   22   24 1    
    46   22   90 1    
    47   23   91 1    
    48   23   92 1    
    49   23   93 1    
    50   24   25 am   BACKBONE|DICT|INTERRES
    51   24   94 1    
    52   25   26 2    
    53   25   27 1    
    54   27   28 1    
    55   27   29 1    
    56   27   95 1    
    57   28   96 1    
    58   28   97 1    
    59   28   98 1    
    60   29   30 am   BACKBONE|DICT|INTERRES
    61   29   99 1    
    62   30   31 2    
    63   30   32 1    
    64   32   33 1    
    65   32   34 1    
    66   32  100 1    
    67   33  101 1    
    68   33  102 1    
    69   33  103 1    
    70   34   35 am   BACKBONE|DICT|INTERRES
    71   34  104 1    
    72   35   36 2    
    73   37   38 2    
    74   37   39 am   BACKBONE|DICT|INTERRES
    75   39   40 1    
    76   39  105 1    
    77   40   41 1    
    78   40   42 1    
    79   40  106 1    
    80   41  107 1    
    81   41  108 1    
    82   41  109 1    
    83   42   43 2    
    84   42   44 am   BACKBONE|DICT|INTERRES
    85   44   45 1    
    86   44  110 1    
    87   45   46 1    
    88   45   47 1    
    89   45  111 1    
    90   46  112 1    
    91   46  113 1    
    92   46  114 1    
    93   47   48 2    
    94   47   49 am   BACKBONE|DICT|INTERRES
    95   49   50 1    
    96   49  115 1    
    97   50   51 1    
    98   50   52 1    
    99   50  116 1    
   100   51  117 1    
   101   51  118 1    
   102   51  119 1    
   103   52   53 2    
   104   52   54 am   BACKBONE|DICT|INTERRES
   105   54   55 1    
   106   54  120 1    
   107   55   56 1    
   108   55   57 1    
   109   55  121 1    
   110   56  122 1    
   111   56  123 1    
   112   56  124 1    
   113   57   58 2    
   114   57   59 am   BACKBONE|DICT|INTERRES
   115   59   60 1    
   116   59  125 1    
   117   60   61 1    
   118   60   62 1    
   119   60  126 1    
   120   61  127 1    
   121   61  128 1    
   122   61  129 1    
   123   62   63 2    
   124   62   64 am   BACKBONE|DICT|INTERRES
   125   64   65 1    
   126   64  130 1    
   127   65   66 1    
   128   65   69 1    
   129   65  131 1    
   130   66   67 am   BACKBONE|DICT|INTERRES
   131   66   68 2    
   132   67  132 1    
   133   67  133 1    
   134   69   70 1    
   135   69  134 1    
   136   69  135 1    
   137   70   71 1    
   138   71  136 1    
   139   71  137 1    
@<TRIPOS>SUBSTRUCTURE
     1 UNK         1 GROUP             0       ****    0 ROOT    
