@<TRIPOS>MOLECULE
3R137
137   139    1
SMALL
USER_CHARGES


@<TRIPOS>ATOM
      1 CA         26.0708   -6.3335   -3.0459 C.3       0 UNK        -0.2020 
      2 C          26.0386   -5.7056   -1.6606 C.2       0 UNK         0.4855 
      3 O          25.4135   -6.2546   -0.7536 O.2       0 UNK        -0.5197 
      4 N          26.7042   -4.5553   -1.4901 N.am      1 UNK        -0.4892 
      5 CA         26.7751   -3.8089   -0.2258 C.3       1 UNK         0.0835 
      6 C6         28.0709   -2.9618   -0.1364 C.3       12 UNK        -0.0855 
      7 S7         28.2419   -1.6640   -1.4181 S.3       12 UNK        -0.2931 
      8 C8         30.0625   -1.6024   -1.6123 C.3       12 UNK         0.0378 
      9 C9         30.5871   -2.2760   -2.8817 C.ar      12 UNK        -0.0802 
     10 C10        31.7592   -1.7959   -3.4781 C.ar      12 UNK        -0.0944 
     11 C11        32.2750   -2.4001   -4.6292 C.ar      12 UNK        -0.0787 
     12 C12        31.5926   -3.4762   -5.2066 C.ar      12 UNK        -0.0862 
     13 C13        30.4260   -3.9737   -4.6192 C.ar      12 UNK        -0.0733 
     14 C14        29.9441   -3.3820   -3.4490 C.ar      12 UNK        -0.0832 
     15 C15        29.7134   -5.1824   -5.2140 C.3       12 UNK         0.0240 
     16 S16        28.6648   -4.7627   -6.6455 S.3       12 UNK        -0.2522 
     17 C17        27.3425   -3.7367   -5.9087 C.3       12 UNK        -0.0967 
     18 CA         26.9883   -2.4944   -6.7643 C.3       5 UNK         0.0660 
     19 N          25.7773   -1.8248   -6.2772 N.am      5 UNK        -0.4015 
     20 C          25.1254   -0.8544   -6.9356 C.2       4 UNK         0.4946 
     21 O          25.4402   -0.4513   -8.0548 O.2       4 UNK        -0.5353 
     22 CA         23.9489   -0.1875   -6.2026 C.3       4 UNK         0.0277 
     23 CB         22.6674   -1.0208   -6.3616 C.3       4 UNK        -0.1981 
     24 N          24.2025    0.0561   -4.7788 N.am      4 UNK        -0.4209 
     25 C          25.2013    0.7962   -4.2803 C.2       3 UNK         0.4942 
     26 O          26.0431    1.3507   -4.9850 O.2       3 UNK        -0.5208 
     27 CA         25.3173    0.9297   -2.7496 C.3       3 UNK         0.0250 
     28 CB         24.6566    2.2340   -2.2641 C.3       3 UNK        -0.1990 
     29 N          24.8532   -0.2309   -1.9707 N.am      3 UNK        -0.4232 
     30 C          23.6115   -0.7252   -1.8403 C.2       2 UNK         0.4993 
     31 O          22.6328   -0.2639   -2.4288 O.2       2 UNK        -0.5286 
     32 CA         23.4469   -1.9728   -0.9528 C.3       2 UNK         0.0209 
     33 CB         22.2568   -2.8461   -1.3948 C.3       2 UNK        -0.1931 
     34 N          24.6621   -2.7901   -0.9723 N.am      2 UNK        -0.4546 
     35 C          25.5114   -2.9620    0.0493 C.2       1 UNK         0.5154 
     36 O          25.3427   -2.4693    1.1656 O.2       1 UNK        -0.5181 
     37 C          28.1645   -1.5044   -6.8898 C.2       5 UNK         0.5014 
     38 O          28.8128   -1.4715   -7.9362 O.2       5 UNK        -0.5248 
     39 N          28.3762   -0.6805   -5.8514 N.am      6 UNK        -0.4434 
     40 CA         29.4003    0.3650   -5.8250 C.3       6 UNK         0.0363 
     41 CB         29.4458    1.0298   -4.4403 C.3       6 UNK        -0.1936 
     42 C          29.1886    1.4231   -6.9157 C.2       6 UNK         0.5081 
     43 O          30.1528    1.8072   -7.5742 O.2       6 UNK        -0.5248 
     44 N          27.9326    1.8475   -7.1083 N.am      7 UNK        -0.4718 
     45 CA         27.5206    2.7747   -8.1619 C.3       7 UNK         0.0273 
     46 CB         26.0551    3.1839   -7.9447 C.3       7 UNK        -0.1935 
     47 C          27.7304    2.2020   -9.5735 C.2       7 UNK         0.5018 
     48 O          28.2646    2.9056  -10.4310 O.2       7 UNK        -0.5186 
     49 N          27.3319    0.9385   -9.7844 N.am      8 UNK        -0.4240 
     50 CA         27.4834    0.2208  -11.0531 C.3       8 UNK         0.0235 
     51 CB         26.6931   -1.0968  -11.0036 C.3       8 UNK        -0.2000 
     52 C          28.9509   -0.0421  -11.4280 C.2       8 UNK         0.4941 
     53 O          29.3263    0.1727  -12.5812 O.2       8 UNK        -0.5273 
     54 N          29.7534   -0.4934  -10.4547 N.am      9 UNK        -0.4262 
     55 CA         31.1796   -0.7831  -10.6280 C.3       9 UNK         0.0264 
     56 CB         31.6119   -1.7938   -9.5547 C.3       9 UNK        -0.1955 
     57 C          32.0784    0.4690  -10.6001 C.2       9 UNK         0.5031 
     58 O          33.2478    0.3628  -10.9734 O.2       9 UNK        -0.5390 
     59 N          31.5318    1.6141  -10.1633 N.am      10 UNK        -0.4204 
     60 CA         32.1949    2.9082   -9.9573 C.3       10 UNK         0.0237 
     61 CB         32.6938    3.5025  -11.2921 C.3       10 UNK        -0.1985 
     62 C          33.2850    2.8375   -8.8691 C.2       10 UNK         0.4970 
     63 O          34.3904    3.3498   -9.0588 O.2       10 UNK        -0.4914 
     64 N          32.9464    2.1881   -7.7504 N.am      11 UNK        -0.4285 
     65 CA         33.8008    2.0296   -6.5667 C.3       11 UNK         0.1007 
     66 C          33.9116    3.3441   -5.7489 C.2       11 UNK         0.5703 
     67 N          35.0353    3.5622   -5.0790 N.am      11 UNK        -0.7361 
     68 O          32.9821    4.1470   -5.6838 O.2       11 UNK        -0.4986 
     69 C69        33.3193    0.8569   -5.6729 C.3       12 UNK        -0.0947 
     70 S70        33.3705   -0.7326   -6.5645 S.3       12 UNK        -0.2240 
     71 C71        33.5985   -1.9337   -5.2202 C.3       12 UNK         0.0194 
     72 H72        26.4364   -7.3581   -2.9840 H         1 UNK         0.0906 
     73 H73        25.0680   -6.3558   -3.4717 H         1 UNK         0.0906 
     74 H74        26.7187   -5.7868   -3.7289 H         1 UNK         0.0906 
     75 H75        27.1899   -4.1330   -2.2657 H         1 UNK         0.3140 
     76 H76        26.8191   -4.5372    0.5878 H         1 UNK         0.1085 
     77 H77        28.1458   -2.4854    0.8433 H         1 UNK         0.0836 
     78 H78        28.9279   -3.6347   -0.1958 H         1 UNK         0.0836 
     79 H79        30.3578   -0.5524   -1.6056 H         1 UNK         0.0731 
     80 H80        30.5521   -2.0496   -0.7465 H         1 UNK         0.0731 
     81 H81        32.2838   -0.9599   -3.0359 H         1 UNK         0.1312 
     82 H82        31.9828   -3.9427   -6.1010 H         1 UNK         0.1406 
     83 H83        29.0655   -3.7914   -2.9775 H         1 UNK         0.1631 
     84 H84        29.1076   -5.6849   -4.4588 H         1 UNK         0.0717 
     85 H85        30.4571   -5.9138   -5.5337 H         1 UNK         0.0717 
     86 H86        26.4625   -4.3743   -5.8111 H         1 UNK         0.0934 
     87 H87        27.6094   -3.4380   -4.8960 H         1 UNK         0.0934 
     88 H88        26.7625   -2.8459   -7.7738 H         1 UNK         0.0739 
     89 H89        25.4395   -2.0900   -5.3648 H         1 UNK         0.3093 
     90 H90        23.7834    0.7843   -6.6721 H         1 UNK         0.0818 
     91 H91        21.8055   -0.5062   -5.9363 H         1 UNK         0.0819 
     92 H92        22.4474   -1.2015   -7.4149 H         1 UNK         0.0819 
     93 H93        22.7509   -1.9926   -5.8734 H         1 UNK         0.0819 
     94 H94        23.5126   -0.2841   -4.1141 H         1 UNK         0.3041 
     95 H95        26.3849    1.0091   -2.5365 H         1 UNK         0.0784 
     96 H96        25.0837    3.0987   -2.7741 H         1 UNK         0.0793 
     97 H97        23.5831    2.2447   -2.4554 H         1 UNK         0.0793 
     98 H98        24.8088    2.3814   -1.1950 H         1 UNK         0.0793 
     99 H99        25.5853   -0.7174   -1.4705 H         1 UNK         0.3024 
    100 H100       23.2455   -1.6112    0.0581 H         1 UNK         0.1171 
    101 H101       21.3174   -2.2956   -1.3272 H         1 UNK         0.0786 
    102 H102       22.1573   -3.7279   -0.7614 H         1 UNK         0.0786 
    103 H103       22.3645   -3.1849   -2.4260 H         1 UNK         0.0786 
    104 H104       24.8906   -3.2376   -1.8481 H         1 UNK         0.2977 
    105 H105       27.7678   -0.7351   -5.0495 H         1 UNK         0.3127 
    106 H106       30.3596   -0.1221   -6.0099 H         1 UNK         0.0770 
    107 H107       28.5142    1.5404   -4.1988 H         1 UNK         0.0814 
    108 H108       30.2403    1.7748   -4.3899 H         1 UNK         0.0814 
    109 H109       29.6354    0.2999   -3.6584 H         1 UNK         0.0814 
    110 H110       27.2087    1.5185   -6.4731 H         1 UNK         0.2983 
    111 H111       28.1406    3.6696   -8.0739 H         1 UNK         0.0947 
    112 H112       25.7342    3.9025   -8.7000 H         1 UNK         0.0806 
    113 H113       25.9151    3.6516   -6.9699 H         1 UNK         0.0806 
    114 H114       25.3831    2.3271   -8.0018 H         1 UNK         0.0806 
    115 H115       26.8585    0.4415   -9.0333 H         1 UNK         0.3000 
    116 H116       27.0506    0.8444  -11.8383 H         1 UNK         0.0850 
    117 H117       26.7875   -1.6465  -11.9410 H         1 UNK         0.0810 
    118 H118       25.6308   -0.9145  -10.8400 H         1 UNK         0.0810 
    119 H119       27.0458   -1.7489  -10.2035 H         1 UNK         0.0810 
    120 H120       29.3568   -0.6964   -9.5371 H         1 UNK         0.3040 
    121 H121       31.3223   -1.2533  -11.6033 H         1 UNK         0.0766 
    122 H122       32.6772   -2.0179   -9.6234 H         1 UNK         0.0812 
    123 H123       31.0726   -2.7355   -9.6571 H         1 UNK         0.0812 
    124 H124       31.4196   -1.4123   -8.5524 H         1 UNK         0.0812 
    125 H125       30.5799    1.5668   -9.8213 H         1 UNK         0.3205 
    126 H126       31.4260    3.5785   -9.5695 H         1 UNK         0.0754 
    127 H127       33.0666    4.5176  -11.1508 H         1 UNK         0.0769 
    128 H128       31.8905    3.5518  -12.0273 H         1 UNK         0.0769 
    129 H129       33.5066    2.9159  -11.7213 H         1 UNK         0.0769 
    130 H130       31.9839    1.8722   -7.6557 H         1 UNK         0.2981 
    131 H131       34.8036    1.7847   -6.9232 H         1 UNK         0.0541 
    132 H132       35.1224    4.4035   -4.5306 H         1 UNK         0.3459 
    133 H133       35.8008    2.9072   -5.1157 H         1 UNK         0.3459 
    134 H134       32.3052    1.0306   -5.3154 H         1 UNK         0.0612 
    135 H135       33.9493    0.7778   -4.7854 H         1 UNK         0.0612 
    136 H136       34.1362   -2.7945   -5.6204 H         1 UNK         0.0624 
    137 H137       34.2424   -1.5164   -4.4450 H         1 UNK         0.0624 
@<TRIPOS>BOND
     1    1    2 1    
     2    1   72 1    
     3    1   73 1    
     4    1   74 1    
     5    2    3 2    
     6    2    4 am   BACKBONE|DICT|INTERRES
     7    4    5 1    
     8    4   75 1    
     9    5    6 1    
    10    5   35 1    
    11    5   76 1    
    12    6    7 1    
    13    6   77 1    
    14    6   78 1    
    15    7    8 1    
    16    8    9 1    
    17    8   79 1    
    18    8   80 1    
    19    9   10 ar   
    20    9   14 ar   
    21   10   11 ar   
    22   10   81 1    
    23   11   12 ar   
    24   11   71 1    
    25   12   13 ar   
    26   12   82 1    
    27   13   14 ar   
    28   13   15 1    
    29   14   83 1    
    30   15   16 1    
    31   15   84 1    
    32   15   85 1    
    33   16   17 1    
    34   17   18 1    
    35   17   86 1    
    36   17   87 1    
    37   18   19 1    
    38   18   37 1    
    39   18   88 1    
    40   19   20 am   BACKBONE|DICT|INTERRES
    41   19   89 1    
    42   20   21 2    
    43   20   22 1    
    44   22   23 1    
    45   22   24 1    
    46   22   90 1    
    47   23   91 1    
    48   23   92 1    
    49   23   93 1    
    50   24   25 am   BACKBONE|DICT|INTERRES
    51   24   94 1    
    52   25   26 2    
    53   25   27 1    
    54   27   28 1    
    55   27   29 1    
    56   27   95 1    
    57   28   96 1    
    58   28   97 1    
    59   28   98 1    
    60   29   30 am   BACKBONE|DICT|INTERRES
    61   29   99 1    
    62   30   31 2    
    63   30   32 1    
    64   32   33 1    
    65   32   34 1    
    66   32  100 1    
    67   33  101 1    
    68   33  102 1    
    69   33  103 1    
    70   34   35 am   BACKBONE|DICT|INTERRES
    71   34  104 1    
    72   35   36 2    
    73   37   38 2    
    74   37   39 am   BACKBONE|DICT|INTERRES
    75   39   40 1    
    76   39  105 1    
    77   40   41 1    
    78   40   42 1    
    79   40  106 1    
    80   41  107 1    
    81   41  108 1    
    82   41  109 1    
    83   42   43 2    
    84   42   44 am   BACKBONE|DICT|INTERRES
    85   44   45 1    
    86   44  110 1    
    87   45   46 1    
    88   45   47 1    
    89   45  111 1    
    90   46  112 1    
    91   46  113 1    
    92   46  114 1    
    93   47   48 2    
    94   47   49 am   BACKBONE|DICT|INTERRES
    95   49   50 1    
    96   49  115 1    
    97   50   51 1    
    98   50   52 1    
    99   50  116 1    
   100   51  117 1    
   101   51  118 1    
   102   51  119 1    
   103   52   53 2    
   104   52   54 am   BACKBONE|DICT|INTERRES
   105   54   55 1    
   106   54  120 1    
   107   55   56 1    
   108   55   57 1    
   109   55  121 1    
   110   56  122 1    
   111   56  123 1    
   112   56  124 1    
   113   57   58 2    
   114   57   59 am   BACKBONE|DICT|INTERRES
   115   59   60 1    
   116   59  125 1    
   117   60   61 1    
   118   60   62 1    
   119   60  126 1    
   120   61  127 1    
   121   61  128 1    
   122   61  129 1    
   123   62   63 2    
   124   62   64 am   BACKBONE|DICT|INTERRES
   125   64   65 1    
   126   64  130 1    
   127   65   66 1    
   128   65   69 1    
   129   65  131 1    
   130   66   67 am   BACKBONE|DICT|INTERRES
   131   66   68 2    
   132   67  132 1    
   133   67  133 1    
   134   69   70 1    
   135   69  134 1    
   136   69  135 1    
   137   70   71 1    
   138   71  136 1    
   139   71  137 1    
@<TRIPOS>SUBSTRUCTURE
     1 UNK         1 GROUP             0       ****    0 ROOT    
