@<TRIPOS>MOLECULE
3R137
137   139    1
SMALL
USER_CHARGES


@<TRIPOS>ATOM
      1 CA         27.1267    1.5659    0.9234 C.3       0 UNK        -0.2020 
      2 C          27.2239    0.0492    0.8443 C.2       0 UNK         0.4855 
      3 O          26.7077   -0.6384    1.7254 O.2       0 UNK        -0.5197 
      4 N          27.8952   -0.4575   -0.1986 N.am      1 UNK        -0.4892 
      5 CA         28.0772   -1.8707   -0.5548 C.3       1 UNK         0.0835 
      6 C6         28.6541   -2.7360    0.5971 C.3       12 UNK        -0.0855 
      7 S7         29.5515   -4.2164    0.0148 S.3       12 UNK        -0.2931 
      8 C8         31.2672   -3.6126   -0.1165 C.3       12 UNK         0.0378 
      9 C9         31.5252   -2.9602   -1.4670 C.ar      12 UNK        -0.0802 
     10 C10        31.8499   -3.7539   -2.5727 C.ar      12 UNK        -0.0944 
     11 C11        32.0787   -3.1692   -3.8211 C.ar      12 UNK        -0.0787 
     12 C12        31.9581   -1.7859   -3.9646 C.ar      12 UNK        -0.0862 
     13 C13        31.6254   -0.9821   -2.8716 C.ar      12 UNK        -0.0733 
     14 C14        31.4382   -1.5715   -1.6169 C.ar      12 UNK        -0.0832 
     15 C15        31.4511    0.5186   -3.0639 C.3       12 UNK         0.0240 
     16 S16        29.7554    1.0925   -2.7079 S.3       12 UNK        -0.2522 
     17 C17        28.7069   -0.0097   -3.7196 C.3       12 UNK        -0.0967 
     18 CA         28.4248    0.4976   -5.1547 C.3       5 UNK         0.0660 
     19 N          27.8252   -0.5528   -5.9807 N.am      5 UNK        -0.4015 
     20 C          27.7891   -0.5395   -7.3199 C.2       4 UNK         0.4946 
     21 O          28.3713    0.3045   -8.0008 O.2       4 UNK        -0.5353 
     22 CA         26.9680   -1.6324   -8.0317 C.3       4 UNK         0.0277 
     23 CB         27.8803   -2.7794   -8.4873 C.3       4 UNK        -0.1981 
     24 N          25.8775   -2.1774   -7.2195 N.am      4 UNK        -0.4209 
     25 C          24.7823   -1.4923   -6.8610 C.2       3 UNK         0.4942 
     26 O          24.5554   -0.3390   -7.2213 O.2       3 UNK        -0.5208 
     27 CA         23.8107   -2.1799   -5.8816 C.3       3 UNK         0.0250 
     28 CB         22.7335   -2.9575   -6.6538 C.3       3 UNK        -0.1990 
     29 N          24.4561   -3.0704   -4.9048 N.am      3 UNK        -0.4232 
     30 C          25.4557   -2.7140   -4.0852 C.2       2 UNK         0.4993 
     31 O          25.9592   -1.5878   -4.0942 O.2       2 UNK        -0.5286 
     32 CA         26.0255   -3.8107   -3.1638 C.3       2 UNK         0.0209 
     33 CB         26.6628   -4.9416   -3.9922 C.3       2 UNK        -0.1931 
     34 N          27.0480   -3.2837   -2.2566 N.am      2 UNK        -0.4546 
     35 C          26.8181   -2.4747   -1.2142 C.2       1 UNK         0.5154 
     36 O          25.6882   -2.1999   -0.8026 O.2       1 UNK        -0.5181 
     37 C          27.5177    1.7419   -5.1704 C.2       5 UNK         0.5014 
     38 O          28.0029    2.8427   -5.4321 O.2       5 UNK        -0.5248 
     39 N          26.2087    1.5326   -4.9551 N.am      6 UNK        -0.4434 
     40 CA         25.1757    2.5738   -5.0006 C.3       6 UNK         0.0363 
     41 CB         23.8296    1.9825   -4.5530 C.3       6 UNK        -0.1936 
     42 C          25.0482    3.2455   -6.3811 C.2       6 UNK         0.5081 
     43 O          24.8666    4.4610   -6.4500 O.2       6 UNK        -0.5248 
     44 N          25.1854    2.4522   -7.4521 N.am      7 UNK        -0.4718 
     45 CA         25.2142    2.9093   -8.8450 C.3       7 UNK         0.0273 
     46 CB         24.9193    1.7112   -9.7632 C.3       7 UNK        -0.1935 
     47 C          26.5376    3.5829   -9.2610 C.2       7 UNK         0.5018 
     48 O          26.6024    4.1167  -10.3690 O.2       7 UNK        -0.5186 
     49 N          27.5650    3.5297   -8.3978 N.am      8 UNK        -0.4240 
     50 CA         28.9284    4.0393   -8.5976 C.3       8 UNK         0.0235 
     51 CB         28.9345    5.5756   -8.7506 C.3       8 UNK        -0.2000 
     52 C          29.7056    3.3194   -9.7198 C.2       8 UNK         0.4941 
     53 O          30.6235    3.9020  -10.2999 O.2       8 UNK        -0.5273 
     54 N          29.3531    2.0537   -9.9815 N.am      9 UNK        -0.4262 
     55 CA         30.0822    1.1425  -10.8667 C.3       9 UNK         0.0264 
     56 CB         29.0984    0.1145  -11.4494 C.3       9 UNK        -0.1955 
     57 C          31.2358    0.4336  -10.1333 C.2       9 UNK         0.5031 
     58 O          32.1478   -0.0675  -10.7924 O.2       9 UNK        -0.5390 
     59 N          31.1660    0.3879   -8.7922 N.am      10 UNK        -0.4204 
     60 CA         32.1586   -0.1567   -7.8558 C.3       10 UNK         0.0237 
     61 CB         33.4214    0.7293   -7.8313 C.3       10 UNK        -0.1985 
     62 C          32.4738   -1.6461   -8.0984 C.2       10 UNK         0.4970 
     63 O          33.6230   -2.0675   -7.9615 O.2       10 UNK        -0.4914 
     64 N          31.4317   -2.4026   -8.4636 N.am      11 UNK        -0.4285 
     65 CA         31.4592   -3.8318   -8.8206 C.3       11 UNK         0.1007 
     66 C          32.1919   -4.1492  -10.1608 C.2       11 UNK         0.5703 
     67 N          32.5244   -3.1666  -10.9921 N.am      11 UNK        -0.7361 
     68 O          32.4331   -5.3127  -10.4742 O.2       11 UNK        -0.4986 
     69 C69        31.9034   -4.7666   -7.6554 C.3       12 UNK        -0.0947 
     70 S70        31.0547   -4.4159   -6.0733 S.3       12 UNK        -0.2240 
     71 C71        32.4814   -4.0158   -5.0168 C.3       12 UNK         0.0194 
     72 H72        26.0821    1.8755    0.9029 H         1 UNK         0.0906 
     73 H73        27.5696    1.9225    1.8530 H         1 UNK         0.0906 
     74 H74        27.6406    2.0535    0.0948 H         1 UNK         0.0906 
     75 H75        28.2866    0.1912   -0.8694 H         1 UNK         0.3140 
     76 H76        28.8289   -1.8334   -1.3403 H         1 UNK         0.1085 
     77 H77        27.8596   -3.0547    1.2745 H         1 UNK         0.0836 
     78 H78        29.3351   -2.1420    1.2083 H         1 UNK         0.0836 
     79 H79        31.9439   -4.4592    0.0102 H         1 UNK         0.0731 
     80 H80        31.4939   -2.9247    0.6994 H         1 UNK         0.0731 
     81 H81        31.9272   -4.8269   -2.4598 H         1 UNK         0.1312 
     82 H82        32.1232   -1.3387   -4.9336 H         1 UNK         0.1406 
     83 H83        31.1873   -0.9509   -0.7670 H         1 UNK         0.1631 
     84 H84        31.7090    0.8128   -4.0826 H         1 UNK         0.0717 
     85 H85        32.1463    1.0455   -2.4090 H         1 UNK         0.0717 
     86 H86        29.1548   -1.0023   -3.7624 H         1 UNK         0.0934 
     87 H87        27.7731   -0.1424   -3.1738 H         1 UNK         0.0934 
     88 H88        29.3800    0.7735   -5.6070 H         1 UNK         0.0739 
     89 H89        27.2594   -1.2307   -5.4800 H         1 UNK         0.3093 
     90 H90        26.5255   -1.1797   -8.9209 H         1 UNK         0.0818 
     91 H91        28.6309   -2.4180   -9.1893 H         1 UNK         0.0819 
     92 H92        27.3149   -3.5563   -9.0025 H         1 UNK         0.0819 
     93 H93        28.4006   -3.2434   -7.6479 H         1 UNK         0.0819 
     94 H94        25.9827   -3.1230   -6.8823 H         1 UNK         0.3041 
     95 H95        23.3171   -1.3881   -5.3145 H         1 UNK         0.0784 
     96 H96        22.2257   -2.3117   -7.3719 H         1 UNK         0.0793 
     97 H97        23.1586   -3.7934   -7.2109 H         1 UNK         0.0793 
     98 H98        21.9706   -3.3530   -5.9829 H         1 UNK         0.0793 
     99 H99        24.0973   -4.0133   -4.8519 H         1 UNK         0.3024 
    100 H100       25.2042   -4.2148   -2.5675 H         1 UNK         0.1171 
    101 H101       27.0807   -5.7154   -3.3474 H         1 UNK         0.0786 
    102 H102       25.9309   -5.4299   -4.6366 H         1 UNK         0.0786 
    103 H103       27.4668   -4.5724   -4.6310 H         1 UNK         0.0786 
    104 H104       28.0060   -3.4757   -2.5117 H         1 UNK         0.2977 
    105 H105       25.8988    0.5887   -4.7566 H         1 UNK         0.3127 
    106 H106       25.4615    3.3479   -4.2853 H         1 UNK         0.0770 
    107 H107       23.4876    1.1974   -5.2277 H         1 UNK         0.0814 
    108 H108       23.0559    2.7512   -4.5313 H         1 UNK         0.0814 
    109 H109       23.8940    1.5596   -3.5503 H         1 UNK         0.0814 
    110 H110       25.2237    1.4461   -7.3050 H         1 UNK         0.2983 
    111 H111       24.4211    3.6479   -8.9801 H         1 UNK         0.0947 
    112 H112       24.8648    2.0199  -10.8081 H         1 UNK         0.0806 
    113 H113       23.9659    1.2446   -9.5146 H         1 UNK         0.0806 
    114 H114       25.6954    0.9494   -9.6887 H         1 UNK         0.0806 
    115 H115       27.4049    3.0814   -7.5029 H         1 UNK         0.3000 
    116 H116       29.4643    3.8053   -7.6765 H         1 UNK         0.0850 
    117 H117       29.9524    5.9668   -8.7312 H         1 UNK         0.0810 
    118 H118       28.3892    6.0566   -7.9384 H         1 UNK         0.0810 
    119 H119       28.4846    5.8921   -9.6919 H         1 UNK         0.0810 
    120 H120       28.6319    1.6303   -9.4046 H         1 UNK         0.3040 
    121 H121       30.5147    1.7095  -11.6938 H         1 UNK         0.0766 
    122 H122       28.3179    0.6036  -12.0326 H         1 UNK         0.0812 
    123 H123       28.6128   -0.4713  -10.6693 H         1 UNK         0.0812 
    124 H124       29.6095   -0.5838  -12.1138 H         1 UNK         0.0812 
    125 H125       30.3052    0.7268   -8.3738 H         1 UNK         0.3205 
    126 H126       31.6988   -0.1006   -6.8689 H         1 UNK         0.0754 
    127 H127       34.1120    0.4080   -7.0505 H         1 UNK         0.0769 
    128 H128       33.1707    1.7711   -7.6316 H         1 UNK         0.0769 
    129 H129       33.9594    0.6900   -8.7792 H         1 UNK         0.0769 
    130 H130       30.5389   -1.9471   -8.5649 H         1 UNK         0.2981 
    131 H131       30.4203   -4.0836   -9.0308 H         1 UNK         0.0541 
    132 H132       32.9855   -3.3962  -11.8579 H         1 UNK         0.3459 
    133 H133       32.3511   -2.1964  -10.7596 H         1 UNK         0.3459 
    134 H134       31.6921   -5.8063   -7.9103 H         1 UNK         0.0612 
    135 H135       32.9844   -4.7116   -7.5193 H         1 UNK         0.0612 
    136 H136       33.2318   -3.4732   -5.5932 H         1 UNK         0.0624 
    137 H137       32.9562   -4.9425   -4.6913 H         1 UNK         0.0624 
@<TRIPOS>BOND
     1    1    2 1    
     2    1   72 1    
     3    1   73 1    
     4    1   74 1    
     5    2    3 2    
     6    2    4 am   BACKBONE|DICT|INTERRES
     7    4    5 1    
     8    4   75 1    
     9    5    6 1    
    10    5   35 1    
    11    5   76 1    
    12    6    7 1    
    13    6   77 1    
    14    6   78 1    
    15    7    8 1    
    16    8    9 1    
    17    8   79 1    
    18    8   80 1    
    19    9   10 ar   
    20    9   14 ar   
    21   10   11 ar   
    22   10   81 1    
    23   11   12 ar   
    24   11   71 1    
    25   12   13 ar   
    26   12   82 1    
    27   13   14 ar   
    28   13   15 1    
    29   14   83 1    
    30   15   16 1    
    31   15   84 1    
    32   15   85 1    
    33   16   17 1    
    34   17   18 1    
    35   17   86 1    
    36   17   87 1    
    37   18   19 1    
    38   18   37 1    
    39   18   88 1    
    40   19   20 am   BACKBONE|DICT|INTERRES
    41   19   89 1    
    42   20   21 2    
    43   20   22 1    
    44   22   23 1    
    45   22   24 1    
    46   22   90 1    
    47   23   91 1    
    48   23   92 1    
    49   23   93 1    
    50   24   25 am   BACKBONE|DICT|INTERRES
    51   24   94 1    
    52   25   26 2    
    53   25   27 1    
    54   27   28 1    
    55   27   29 1    
    56   27   95 1    
    57   28   96 1    
    58   28   97 1    
    59   28   98 1    
    60   29   30 am   BACKBONE|DICT|INTERRES
    61   29   99 1    
    62   30   31 2    
    63   30   32 1    
    64   32   33 1    
    65   32   34 1    
    66   32  100 1    
    67   33  101 1    
    68   33  102 1    
    69   33  103 1    
    70   34   35 am   BACKBONE|DICT|INTERRES
    71   34  104 1    
    72   35   36 2    
    73   37   38 2    
    74   37   39 am   BACKBONE|DICT|INTERRES
    75   39   40 1    
    76   39  105 1    
    77   40   41 1    
    78   40   42 1    
    79   40  106 1    
    80   41  107 1    
    81   41  108 1    
    82   41  109 1    
    83   42   43 2    
    84   42   44 am   BACKBONE|DICT|INTERRES
    85   44   45 1    
    86   44  110 1    
    87   45   46 1    
    88   45   47 1    
    89   45  111 1    
    90   46  112 1    
    91   46  113 1    
    92   46  114 1    
    93   47   48 2    
    94   47   49 am   BACKBONE|DICT|INTERRES
    95   49   50 1    
    96   49  115 1    
    97   50   51 1    
    98   50   52 1    
    99   50  116 1    
   100   51  117 1    
   101   51  118 1    
   102   51  119 1    
   103   52   53 2    
   104   52   54 am   BACKBONE|DICT|INTERRES
   105   54   55 1    
   106   54  120 1    
   107   55   56 1    
   108   55   57 1    
   109   55  121 1    
   110   56  122 1    
   111   56  123 1    
   112   56  124 1    
   113   57   58 2    
   114   57   59 am   BACKBONE|DICT|INTERRES
   115   59   60 1    
   116   59  125 1    
   117   60   61 1    
   118   60   62 1    
   119   60  126 1    
   120   61  127 1    
   121   61  128 1    
   122   61  129 1    
   123   62   63 2    
   124   62   64 am   BACKBONE|DICT|INTERRES
   125   64   65 1    
   126   64  130 1    
   127   65   66 1    
   128   65   69 1    
   129   65  131 1    
   130   66   67 am   BACKBONE|DICT|INTERRES
   131   66   68 2    
   132   67  132 1    
   133   67  133 1    
   134   69   70 1    
   135   69  134 1    
   136   69  135 1    
   137   70   71 1    
   138   71  136 1    
   139   71  137 1    
@<TRIPOS>SUBSTRUCTURE
     1 UNK         1 GROUP             0       ****    0 ROOT    
