@<TRIPOS>MOLECULE
3R137
137   139    1
SMALL
USER_CHARGES


@<TRIPOS>ATOM
      1 CA         29.3363   -1.5769    3.1289 C.3       0 UNK        -0.2020 
      2 C          29.3276   -1.8470    1.6315 C.2       0 UNK         0.4855 
      3 O          29.9876   -1.1296    0.8799 O.2       0 UNK        -0.5197 
      4 N          28.5862   -2.8731    1.2015 N.am      1 UNK        -0.4892 
      5 CA         28.4100   -3.2676   -0.1970 C.3       1 UNK         0.0835 
      6 C6         29.0745   -4.6375   -0.5111 C.3       12 UNK        -0.0855 
      7 S7         30.8795   -4.6488   -0.2142 S.3       12 UNK        -0.2931 
      8 C8         31.5668   -4.9844   -1.8751 C.3       12 UNK         0.0378 
      9 C9         31.1584   -3.9686   -2.9389 C.ar      12 UNK        -0.0802 
     10 C10        30.8531   -4.4067   -4.2320 C.ar      12 UNK        -0.0944 
     11 C11        30.4438   -3.5025   -5.2175 C.ar      12 UNK        -0.0787 
     12 C12        30.3268   -2.1462   -4.8936 C.ar      12 UNK        -0.0862 
     13 C13        30.6493   -1.6934   -3.6116 C.ar      12 UNK        -0.0733 
     14 C14        31.0812   -2.6035   -2.6455 C.ar      12 UNK        -0.0832 
     15 C15        30.4796   -0.2305   -3.2486 C.3       12 UNK         0.0240 
     16 S16        28.7889    0.0403   -2.6422 S.3       12 UNK        -0.2522 
     17 C17        28.2674    1.5199   -3.5673 C.3       12 UNK        -0.0967 
     18 CA         28.0711    1.2878   -5.0878 C.3       5 UNK         0.0660 
     19 N          27.1716    0.1676   -5.3989 N.am      5 UNK        -0.4015 
     20 C          27.0047   -0.3319   -6.6349 C.2       4 UNK         0.4946 
     21 O          27.6505    0.0559   -7.6061 O.2       4 UNK        -0.5353 
     22 CA         25.8988   -1.3757   -6.8768 C.3       4 UNK         0.0277 
     23 CB         26.4928   -2.7890   -6.8938 C.3       4 UNK        -0.1981 
     24 N          24.7966   -1.3257   -5.9180 N.am      4 UNK        -0.4209 
     25 C          24.0529   -0.2506   -5.6208 C.2       3 UNK         0.4942 
     26 O          24.1268    0.8177   -6.2312 O.2       3 UNK        -0.5208 
     27 CA         23.1386   -0.3622   -4.3830 C.3       3 UNK         0.0250 
     28 CB         21.6850   -0.6072   -4.8163 C.3       3 UNK        -0.1990 
     29 N          23.5434   -1.3989   -3.4160 N.am      3 UNK        -0.4232 
     30 C          24.7503   -1.4886   -2.8340 C.2       2 UNK         0.4993 
     31 O          25.6541   -0.6738   -3.0309 O.2       2 UNK        -0.5286 
     32 CA         25.0168   -2.7199   -1.9557 C.3       2 UNK         0.0209 
     33 CB         24.7172   -4.0357   -2.7064 C.3       2 UNK        -0.1931 
     34 N          26.4174   -2.7138   -1.5291 N.am      2 UNK        -0.4546 
     35 C          26.8946   -3.3376   -0.4474 C.2       1 UNK         0.5154 
     36 O          26.1865   -3.9713    0.3408 O.2       1 UNK        -0.5181 
     37 C          27.6497    2.6098   -5.7691 C.2       5 UNK         0.5014 
     38 O          28.5055    3.4739   -5.9609 O.2       5 UNK        -0.5248 
     39 N          26.3649    2.7477   -6.1269 N.am      6 UNK        -0.4434 
     40 CA         25.8448    3.8564   -6.9235 C.3       6 UNK         0.0363 
     41 CB         24.5217    4.3494   -6.3138 C.3       6 UNK        -0.1936 
     42 C          25.6404    3.4285   -8.3842 C.2       6 UNK         0.5081 
     43 O          26.0083    4.1805   -9.2865 O.2       6 UNK        -0.5248 
     44 N          25.0384    2.2482   -8.5968 N.am      7 UNK        -0.4718 
     45 CA         24.6208    1.7707   -9.9190 C.3       7 UNK         0.0273 
     46 CB         23.5826    0.6487   -9.7571 C.3       7 UNK        -0.1935 
     47 C          25.7737    1.3239  -10.8360 C.2       7 UNK         0.5018 
     48 O          25.6629    1.5045  -12.0497 O.2       7 UNK        -0.5186 
     49 N          26.8397    0.7501  -10.2626 N.am      8 UNK        -0.4240 
     50 CA         28.0330    0.2977  -10.9855 C.3       8 UNK         0.0235 
     51 CB         28.2675   -1.2004  -10.7222 C.3       8 UNK        -0.2000 
     52 C          29.2612    1.1196  -10.5761 C.2       8 UNK         0.4941 
     53 O          30.0303    1.5287  -11.4467 O.2       8 UNK        -0.5273 
     54 N          29.4240    1.3462   -9.2646 N.am      9 UNK        -0.4262 
     55 CA         30.4353    2.1565   -8.5716 C.3       9 UNK         0.0264 
     56 CB         30.3332    3.6387   -8.9773 C.3       9 UNK        -0.1955 
     57 C          31.8849    1.6516   -8.6771 C.2       9 UNK         0.5031 
     58 O          32.5962    1.6752   -7.6721 O.2       9 UNK        -0.5390 
     59 N          32.3001    1.1942   -9.8649 N.am      10 UNK        -0.4204 
     60 CA         33.6532    0.7276  -10.1913 C.3       10 UNK         0.0237 
     61 CB         33.7111    0.3590  -11.6825 C.3       10 UNK        -0.1985 
     62 C          34.1551   -0.4448   -9.3283 C.2       10 UNK         0.4970 
     63 O          35.3612   -0.5503   -9.1023 O.2       10 UNK        -0.4914 
     64 N          33.2294   -1.2882   -8.8575 N.am      11 UNK        -0.4285 
     65 CA         33.4858   -2.3736   -7.9015 C.3       11 UNK         0.1007 
     66 C          33.6739   -1.9166   -6.4240 C.2       11 UNK         0.5703 
     67 N          33.4502   -0.6547   -6.0725 N.am      11 UNK        -0.7361 
     68 O          34.0697   -2.7211   -5.5844 O.2       11 UNK        -0.4986 
     69 C69        32.4517   -3.5207   -8.0536 C.3       12 UNK        -0.0947 
     70 S70        30.7079   -2.9810   -7.9671 S.3       12 UNK        -0.2240 
     71 C71        30.0740   -4.0155   -6.6053 C.3       12 UNK         0.0194 
     72 H72        28.7150   -2.2858    3.6760 H         1 UNK         0.0906 
     73 H73        28.9643   -0.5729    3.3314 H         1 UNK         0.0906 
     74 H74        30.3524   -1.6484    3.5161 H         1 UNK         0.0906 
     75 H75        28.0201   -3.3982    1.8552 H         1 UNK         0.3140 
     76 H76        28.8318   -2.5111   -0.8617 H         1 UNK         0.1085 
     77 H77        28.6352   -5.4257    0.1038 H         1 UNK         0.0836 
     78 H78        28.8783   -4.9232   -1.5464 H         1 UNK         0.0836 
     79 H79        32.6553   -4.9969   -1.8073 H         1 UNK         0.0731 
     80 H80        31.2644   -5.9899   -2.1720 H         1 UNK         0.0731 
     81 H81        30.9209   -5.4597   -4.4690 H         1 UNK         0.1312 
     82 H82        29.9774   -1.4424   -5.6365 H         1 UNK         0.1406 
     83 H83        31.3171   -2.2503   -1.6503 H         1 UNK         0.1631 
     84 H84        30.7032    0.3989   -4.1100 H         1 UNK         0.0717 
     85 H85        31.1879    0.0562   -2.4699 H         1 UNK         0.0717 
     86 H86        27.3360    1.8698   -3.1174 H         1 UNK         0.0934 
     87 H87        29.0034    2.3068   -3.3894 H         1 UNK         0.0934 
     88 H88        29.0409    1.0310   -5.5163 H         1 UNK         0.0739 
     89 H89        26.6206   -0.1917   -4.6222 H         1 UNK         0.3093 
     90 H90        25.4815   -1.1767   -7.8634 H         1 UNK         0.0818 
     91 H91        27.2707   -2.8658   -7.6546 H         1 UNK         0.0819 
     92 H92        26.9374   -3.0503   -5.9324 H         1 UNK         0.0819 
     93 H93        25.7375   -3.5379   -7.1325 H         1 UNK         0.0819 
     94 H94        24.6529   -2.1541   -5.3606 H         1 UNK         0.3041 
     95 H95        23.1864    0.5990   -3.8673 H         1 UNK         0.0784 
     96 H96        21.3515    0.1610   -5.5159 H         1 UNK         0.0793 
     97 H97        21.5677   -1.5718   -5.3118 H         1 UNK         0.0793 
     98 H98        21.0059   -0.5810   -3.9638 H         1 UNK         0.0793 
     99 H99        22.8516   -2.1039   -3.2041 H         1 UNK         0.3024 
    100 H100       24.3718   -2.6411   -1.0775 H         1 UNK         0.1171 
    101 H101       23.6685   -4.1075   -2.9960 H         1 UNK         0.0786 
    102 H102       25.3175   -4.1270   -3.6126 H         1 UNK         0.0786 
    103 H103       24.9277   -4.9050   -2.0831 H         1 UNK         0.0786 
    104 H104       27.0198   -2.1175   -2.0860 H         1 UNK         0.2977 
    105 H105       25.7175    1.9871   -5.9467 H         1 UNK         0.3127 
    106 H106       26.5462    4.6937   -6.9173 H         1 UNK         0.0770 
    107 H107       23.7650    3.5643   -6.2885 H         1 UNK         0.0814 
    108 H108       24.1121    5.1788   -6.8920 H         1 UNK         0.0814 
    109 H109       24.6665    4.7060   -5.2940 H         1 UNK         0.0814 
    110 H110       24.7281    1.7053   -7.7949 H         1 UNK         0.2983 
    111 H111       24.1236    2.6029  -10.4231 H         1 UNK         0.0947 
    112 H112       24.0010   -0.2291   -9.2682 H         1 UNK         0.0806 
    113 H113       23.2030    0.3278  -10.7282 H         1 UNK         0.0806 
    114 H114       22.7265    0.9817   -9.1699 H         1 UNK         0.0806 
    115 H115       26.8670    0.6561   -9.2521 H         1 UNK         0.3000 
    116 H116       27.9019    0.4293  -12.0616 H         1 UNK         0.0850 
    117 H117       29.1461   -1.5578  -11.2609 H         1 UNK         0.0810 
    118 H118       27.4182   -1.7964  -11.0561 H         1 UNK         0.0810 
    119 H119       28.4276   -1.4135   -9.6651 H         1 UNK         0.0810 
    120 H120       28.7662    0.8806   -8.6374 H         1 UNK         0.3040 
    121 H121       30.1756    2.0907   -7.5151 H         1 UNK         0.0766 
    122 H122       30.5763    3.7937  -10.0288 H         1 UNK         0.0812 
    123 H123       31.0195    4.2502   -8.3902 H         1 UNK         0.0812 
    124 H124       29.3282    4.0247   -8.8036 H         1 UNK         0.0812 
    125 H125       31.6249    1.2406  -10.6272 H         1 UNK         0.3205 
    126 H126       34.3317    1.5655  -10.0191 H         1 UNK         0.0754 
    127 H127       34.7123    0.0321  -11.9672 H         1 UNK         0.0769 
    128 H128       33.4593    1.2127  -12.3123 H         1 UNK         0.0769 
    129 H129       33.0212   -0.4507  -11.9242 H         1 UNK         0.0769 
    130 H130       32.2594   -1.1235   -9.0808 H         1 UNK         0.2981 
    131 H131       34.4502   -2.8073   -8.1726 H         1 UNK         0.0541 
    132 H132       33.5944   -0.3888   -5.1127 H         1 UNK         0.3459 
    133 H133       33.1576    0.0437   -6.7480 H         1 UNK         0.3459 
    134 H134       32.6391   -4.3060   -7.3191 H         1 UNK         0.0612 
    135 H135       32.5896   -3.9973   -9.0251 H         1 UNK         0.0612 
    136 H136       30.4263   -5.0380   -6.7490 H         1 UNK         0.0624 
    137 H137       28.9898   -4.0643   -6.6748 H         1 UNK         0.0624 
@<TRIPOS>BOND
     1    1    2 1    
     2    1   72 1    
     3    1   73 1    
     4    1   74 1    
     5    2    3 2    
     6    2    4 am   BACKBONE|DICT|INTERRES
     7    4    5 1    
     8    4   75 1    
     9    5    6 1    
    10    5   35 1    
    11    5   76 1    
    12    6    7 1    
    13    6   77 1    
    14    6   78 1    
    15    7    8 1    
    16    8    9 1    
    17    8   79 1    
    18    8   80 1    
    19    9   10 ar   
    20    9   14 ar   
    21   10   11 ar   
    22   10   81 1    
    23   11   12 ar   
    24   11   71 1    
    25   12   13 ar   
    26   12   82 1    
    27   13   14 ar   
    28   13   15 1    
    29   14   83 1    
    30   15   16 1    
    31   15   84 1    
    32   15   85 1    
    33   16   17 1    
    34   17   18 1    
    35   17   86 1    
    36   17   87 1    
    37   18   19 1    
    38   18   37 1    
    39   18   88 1    
    40   19   20 am   BACKBONE|DICT|INTERRES
    41   19   89 1    
    42   20   21 2    
    43   20   22 1    
    44   22   23 1    
    45   22   24 1    
    46   22   90 1    
    47   23   91 1    
    48   23   92 1    
    49   23   93 1    
    50   24   25 am   BACKBONE|DICT|INTERRES
    51   24   94 1    
    52   25   26 2    
    53   25   27 1    
    54   27   28 1    
    55   27   29 1    
    56   27   95 1    
    57   28   96 1    
    58   28   97 1    
    59   28   98 1    
    60   29   30 am   BACKBONE|DICT|INTERRES
    61   29   99 1    
    62   30   31 2    
    63   30   32 1    
    64   32   33 1    
    65   32   34 1    
    66   32  100 1    
    67   33  101 1    
    68   33  102 1    
    69   33  103 1    
    70   34   35 am   BACKBONE|DICT|INTERRES
    71   34  104 1    
    72   35   36 2    
    73   37   38 2    
    74   37   39 am   BACKBONE|DICT|INTERRES
    75   39   40 1    
    76   39  105 1    
    77   40   41 1    
    78   40   42 1    
    79   40  106 1    
    80   41  107 1    
    81   41  108 1    
    82   41  109 1    
    83   42   43 2    
    84   42   44 am   BACKBONE|DICT|INTERRES
    85   44   45 1    
    86   44  110 1    
    87   45   46 1    
    88   45   47 1    
    89   45  111 1    
    90   46  112 1    
    91   46  113 1    
    92   46  114 1    
    93   47   48 2    
    94   47   49 am   BACKBONE|DICT|INTERRES
    95   49   50 1    
    96   49  115 1    
    97   50   51 1    
    98   50   52 1    
    99   50  116 1    
   100   51  117 1    
   101   51  118 1    
   102   51  119 1    
   103   52   53 2    
   104   52   54 am   BACKBONE|DICT|INTERRES
   105   54   55 1    
   106   54  120 1    
   107   55   56 1    
   108   55   57 1    
   109   55  121 1    
   110   56  122 1    
   111   56  123 1    
   112   56  124 1    
   113   57   58 2    
   114   57   59 am   BACKBONE|DICT|INTERRES
   115   59   60 1    
   116   59  125 1    
   117   60   61 1    
   118   60   62 1    
   119   60  126 1    
   120   61  127 1    
   121   61  128 1    
   122   61  129 1    
   123   62   63 2    
   124   62   64 am   BACKBONE|DICT|INTERRES
   125   64   65 1    
   126   64  130 1    
   127   65   66 1    
   128   65   69 1    
   129   65  131 1    
   130   66   67 am   BACKBONE|DICT|INTERRES
   131   66   68 2    
   132   67  132 1    
   133   67  133 1    
   134   69   70 1    
   135   69  134 1    
   136   69  135 1    
   137   70   71 1    
   138   71  136 1    
   139   71  137 1    
@<TRIPOS>SUBSTRUCTURE
     1 UNK         1 GROUP             0       ****    0 ROOT    
