@<TRIPOS>MOLECULE
3R137
137   139    1
SMALL
USER_CHARGES


@<TRIPOS>ATOM
      1 CA         25.7317   -5.1910    1.8460 C.3       0 UNK        -0.2020 
      2 C          26.5678   -4.2253    1.0202 C.2       0 UNK         0.4855 
      3 O          27.1428   -3.2869    1.5711 O.2       0 UNK        -0.5197 
      4 N          26.6301   -4.4378   -0.3008 N.am      1 UNK        -0.4892 
      5 CA         27.4152   -3.6337   -1.2490 C.3       1 UNK         0.0835 
      6 C6         27.9288   -4.4876   -2.4354 C.3       12 UNK        -0.0855 
      7 S7         29.2595   -5.6442   -1.9657 S.3       12 UNK        -0.2931 
      8 C8         30.6236   -4.5353   -1.4515 C.3       12 UNK         0.0378 
      9 C9         30.7821   -3.3013   -2.3356 C.ar      12 UNK        -0.0802 
     10 C10        31.2107   -3.4302   -3.6576 C.ar      12 UNK        -0.0944 
     11 C11        31.3682   -2.3013   -4.4665 C.ar      12 UNK        -0.0787 
     12 C12        31.0765   -1.0327   -3.9507 C.ar      12 UNK        -0.0862 
     13 C13        30.6430   -0.8854   -2.6250 C.ar      12 UNK        -0.0733 
     14 C14        30.5127   -2.0265   -1.8267 C.ar      12 UNK        -0.0832 
     15 C15        30.3769    0.4776   -1.9795 C.3       12 UNK         0.0240 
     16 S16        30.0110    1.8574   -3.1192 S.3       12 UNK        -0.2522 
     17 C17        28.2111    1.7104   -3.3888 C.3       12 UNK        -0.0967 
     18 CA         27.8838    1.4559   -4.8852 C.3       5 UNK         0.0660 
     19 N          27.4838    0.0730   -5.1398 N.am      5 UNK        -0.4015 
     20 C          27.4528   -0.4796   -6.3599 C.2       4 UNK         0.4946 
     21 O          27.8160    0.0963   -7.3874 O.2       4 UNK        -0.5353 
     22 CA         26.8983   -1.9072   -6.4510 C.3       4 UNK         0.0277 
     23 CB         27.9935   -2.9267   -6.1037 C.3       4 UNK        -0.1981 
     24 N          25.7293   -2.1031   -5.5866 N.am      4 UNK        -0.4209 
     25 C          24.5351   -1.5314   -5.8043 C.2       3 UNK         0.4942 
     26 O          24.3002   -0.7776   -6.7468 O.2       3 UNK        -0.5208 
     27 CA         23.4189   -1.8220   -4.7879 C.3       3 UNK         0.0250 
     28 CB         22.7866   -3.1977   -5.0529 C.3       3 UNK        -0.1990 
     29 N          23.8658   -1.7438   -3.3962 N.am      3 UNK        -0.4232 
     30 C          24.3405   -0.6362   -2.8089 C.2       2 UNK         0.4993 
     31 O          24.4717    0.4453   -3.3777 O.2       2 UNK        -0.5286 
     32 CA         24.8058   -0.7737   -1.3528 C.3       2 UNK         0.0209 
     33 CB         23.6126   -0.6916   -0.3874 C.3       2 UNK        -0.1931 
     34 N          25.5665   -1.9998   -1.0956 N.am      2 UNK        -0.4546 
     35 C          26.6895   -2.3584   -1.7350 C.2       1 UNK         0.5154 
     36 O          27.1559   -1.7172   -2.6807 O.2       1 UNK        -0.5181 
     37 C          26.8621    2.4633   -5.4579 C.2       5 UNK         0.5014 
     38 O          27.2801    3.4385   -6.0829 O.2       5 UNK        -0.5248 
     39 N          25.5549    2.2050   -5.2885 N.am      6 UNK        -0.4434 
     40 CA         24.4684    3.0181   -5.8512 C.3       6 UNK         0.0363 
     41 CB         23.1167    2.5646   -5.2778 C.3       6 UNK        -0.1936 
     42 C          24.4288    2.9997   -7.3886 C.2       6 UNK         0.5081 
     43 O          24.1807    4.0401   -7.9984 O.2       6 UNK        -0.5248 
     44 N          24.7029    1.8335   -7.9901 N.am      7 UNK        -0.4718 
     45 CA         24.8442    1.6563   -9.4393 C.3       7 UNK         0.0273 
     46 CB         24.7709    0.1567   -9.7716 C.3       7 UNK        -0.1935 
     47 C          26.1403    2.2603  -10.0122 C.2       7 UNK         0.5018 
     48 O          26.2416    2.3908  -11.2328 O.2       7 UNK        -0.5186 
     49 N          27.0986    2.5970   -9.1346 N.am      8 UNK        -0.4240 
     50 CA         28.4473    3.0921   -9.4202 C.3       8 UNK         0.0235 
     51 CB         28.3999    4.4926  -10.0677 C.3       8 UNK        -0.2000 
     52 C          29.2652    2.0702  -10.2291 C.2       8 UNK         0.4941 
     53 O          29.8095    2.4061  -11.2827 O.2       8 UNK        -0.5273 
     54 N          29.3221    0.8302   -9.7181 N.am      9 UNK        -0.4262 
     55 CA         30.0018   -0.3128  -10.3392 C.3       9 UNK         0.0264 
     56 CB         29.7175   -1.5788   -9.5140 C.3       9 UNK        -0.1955 
     57 C          31.5194   -0.1325  -10.5347 C.2       9 UNK         0.5031 
     58 O          32.0731   -0.7446  -11.4492 O.2       9 UNK        -0.5390 
     59 N          32.1512    0.6948   -9.6842 N.am      10 UNK        -0.4204 
     60 CA         33.5733    1.0698   -9.6957 C.3       10 UNK         0.0237 
     61 CB         33.8823    1.9708  -10.9107 C.3       10 UNK        -0.1985 
     62 C          34.5105   -0.1501   -9.5965 C.2       10 UNK         0.4970 
     63 O          35.4485   -0.2835  -10.3849 O.2       10 UNK        -0.4914 
     64 N          34.2111   -1.0307   -8.6343 N.am      11 UNK        -0.4285 
     65 CA         34.9075   -2.3045   -8.4045 C.3       11 UNK         0.1007 
     66 C          36.3659   -2.1965   -7.8644 C.2       11 UNK         0.5703 
     67 N          36.8282   -1.0346   -7.4174 N.am      11 UNK        -0.7361 
     68 O          37.0945   -3.1862   -7.8648 O.2       11 UNK        -0.4986 
     69 C69        34.0327   -3.2717   -7.5642 C.3       12 UNK        -0.0947 
     70 S70        33.6929   -2.6754   -5.8711 S.3       12 UNK        -0.2240 
     71 C71        31.8860   -2.4672   -5.8859 C.3       12 UNK         0.0194 
     72 H72        24.9377   -4.6533    2.3635 H         1 UNK         0.0906 
     73 H73        25.2726   -5.9642    1.2302 H         1 UNK         0.0906 
     74 H74        26.3551   -5.6802    2.5941 H         1 UNK         0.0906 
     75 H75        26.1378   -5.2255   -0.6996 H         1 UNK         0.3140 
     76 H76        28.2815   -3.2507   -0.7120 H         1 UNK         0.1085 
     77 H77        28.3224   -3.8703   -3.2407 H         1 UNK         0.0836 
     78 H78        27.1107   -5.0557   -2.8810 H         1 UNK         0.0836 
     79 H79        31.5558   -5.1019   -1.4606 H         1 UNK         0.0731 
     80 H80        30.4634   -4.2444   -0.4122 H         1 UNK         0.0731 
     81 H81        31.4346   -4.4115   -4.0537 H         1 UNK         0.1312 
     82 H82        31.2146   -0.1637   -4.5779 H         1 UNK         0.1406 
     83 H83        30.2062   -1.9161   -0.7955 H         1 UNK         0.1631 
     84 H84        31.2654    0.7490   -1.4082 H         1 UNK         0.0717 
     85 H85        29.5654    0.3972   -1.2543 H         1 UNK         0.0717 
     86 H86        27.7959    0.9280   -2.7515 H         1 UNK         0.0934 
     87 H87        27.7643    2.6384   -3.0257 H         1 UNK         0.0934 
     88 H88        28.7923    1.6189   -5.4702 H         1 UNK         0.0739 
     89 H89        27.2118   -0.4864   -4.3373 H         1 UNK         0.3093 
     90 H90        26.5849   -2.0806   -7.4828 H         1 UNK         0.0818 
     91 H91        27.6071   -3.9457   -6.0826 H         1 UNK         0.0819 
     92 H92        28.7939   -2.8997   -6.8434 H         1 UNK         0.0819 
     93 H93        28.4477   -2.7122   -5.1369 H         1 UNK         0.0819 
     94 H94        25.8560   -2.6665   -4.7587 H         1 UNK         0.3041 
     95 H95        22.6466   -1.0622   -4.9266 H         1 UNK         0.0784 
     96 H96        22.4330   -3.2716   -6.0825 H         1 UNK         0.0793 
     97 H97        23.4966   -4.0100   -4.8931 H         1 UNK         0.0793 
     98 H98        21.9269   -3.3704   -4.4050 H         1 UNK         0.0793 
     99 H99        23.8094   -2.5886   -2.8463 H         1 UNK         0.3024 
    100 H100       25.4696    0.0695   -1.1486 H         1 UNK         0.1171 
    101 H101       23.9434   -0.6784    0.6514 H         1 UNK         0.0786 
    102 H102       23.0388    0.2214   -0.5537 H         1 UNK         0.0786 
    103 H103       22.9301   -1.5331   -0.5120 H         1 UNK         0.0786 
    104 H104       25.2625   -2.5777   -0.3255 H         1 UNK         0.2977 
    105 H105       25.2694    1.4165   -4.7087 H         1 UNK         0.3127 
    106 H106       24.6362    4.0516   -5.5408 H         1 UNK         0.0770 
    107 H107       22.9099    1.5199   -5.5137 H         1 UNK         0.0814 
    108 H108       22.2985    3.1604   -5.6845 H         1 UNK         0.0814 
    109 H109       23.0890    2.6754   -4.1938 H         1 UNK         0.0814 
    110 H110       24.8126    0.9985   -7.4200 H         1 UNK         0.2983 
    111 H111       24.0077    2.1587   -9.9299 H         1 UNK         0.0947 
    112 H112       25.5809   -0.3985   -9.2965 H         1 UNK         0.0806 
    113 H113       24.8451   -0.0127  -10.8466 H         1 UNK         0.0806 
    114 H114       23.8274   -0.2774   -9.4408 H         1 UNK         0.0806 
    115 H115       26.9019    2.4308   -8.1557 H         1 UNK         0.3000 
    116 H116       28.9464    3.1931   -8.4551 H         1 UNK         0.0850 
    117 H117       27.8329    5.1923   -9.4536 H         1 UNK         0.0810 
    118 H118       27.9441    4.4695  -11.0580 H         1 UNK         0.0810 
    119 H119       29.4043    4.9017  -10.1830 H         1 UNK         0.0810 
    120 H120       28.8011    0.6335   -8.8634 H         1 UNK         0.3040 
    121 H121       29.5646   -0.4473  -11.3307 H         1 UNK         0.0766 
    122 H122       30.1948   -2.4536   -9.9578 H         1 UNK         0.0812 
    123 H123       28.6483   -1.7854   -9.4616 H         1 UNK         0.0812 
    124 H124       30.0898   -1.4843   -8.4938 H         1 UNK         0.0812 
    125 H125       31.5873    1.1313   -8.9688 H         1 UNK         0.3205 
    126 H126       33.7466    1.6622   -8.7961 H         1 UNK         0.0754 
    127 H127       34.9071    2.3424  -10.8730 H         1 UNK         0.0769 
    128 H128       33.2234    2.8389  -10.9372 H         1 UNK         0.0769 
    129 H129       33.7644    1.4342  -11.8529 H         1 UNK         0.0769 
    130 H130       33.4404   -0.8343   -8.0150 H         1 UNK         0.2981 
    131 H131       35.0129   -2.7682   -9.3873 H         1 UNK         0.0541 
    132 H132       37.7748   -0.9778   -7.0765 H         1 UNK         0.3459 
    133 H133       36.2383   -0.2189   -7.4113 H         1 UNK         0.3459 
    134 H134       33.0896   -3.4524   -8.0822 H         1 UNK         0.0612 
    135 H135       34.5128   -4.2489   -7.4886 H         1 UNK         0.0612 
    136 H136       31.4166   -3.3389   -6.3446 H         1 UNK         0.0624 
    137 H137       31.6209   -1.6056   -6.4998 H         1 UNK         0.0624 
@<TRIPOS>BOND
     1    1    2 1    
     2    1   72 1    
     3    1   73 1    
     4    1   74 1    
     5    2    3 2    
     6    2    4 am   BACKBONE|DICT|INTERRES
     7    4    5 1    
     8    4   75 1    
     9    5    6 1    
    10    5   35 1    
    11    5   76 1    
    12    6    7 1    
    13    6   77 1    
    14    6   78 1    
    15    7    8 1    
    16    8    9 1    
    17    8   79 1    
    18    8   80 1    
    19    9   10 ar   
    20    9   14 ar   
    21   10   11 ar   
    22   10   81 1    
    23   11   12 ar   
    24   11   71 1    
    25   12   13 ar   
    26   12   82 1    
    27   13   14 ar   
    28   13   15 1    
    29   14   83 1    
    30   15   16 1    
    31   15   84 1    
    32   15   85 1    
    33   16   17 1    
    34   17   18 1    
    35   17   86 1    
    36   17   87 1    
    37   18   19 1    
    38   18   37 1    
    39   18   88 1    
    40   19   20 am   BACKBONE|DICT|INTERRES
    41   19   89 1    
    42   20   21 2    
    43   20   22 1    
    44   22   23 1    
    45   22   24 1    
    46   22   90 1    
    47   23   91 1    
    48   23   92 1    
    49   23   93 1    
    50   24   25 am   BACKBONE|DICT|INTERRES
    51   24   94 1    
    52   25   26 2    
    53   25   27 1    
    54   27   28 1    
    55   27   29 1    
    56   27   95 1    
    57   28   96 1    
    58   28   97 1    
    59   28   98 1    
    60   29   30 am   BACKBONE|DICT|INTERRES
    61   29   99 1    
    62   30   31 2    
    63   30   32 1    
    64   32   33 1    
    65   32   34 1    
    66   32  100 1    
    67   33  101 1    
    68   33  102 1    
    69   33  103 1    
    70   34   35 am   BACKBONE|DICT|INTERRES
    71   34  104 1    
    72   35   36 2    
    73   37   38 2    
    74   37   39 am   BACKBONE|DICT|INTERRES
    75   39   40 1    
    76   39  105 1    
    77   40   41 1    
    78   40   42 1    
    79   40  106 1    
    80   41  107 1    
    81   41  108 1    
    82   41  109 1    
    83   42   43 2    
    84   42   44 am   BACKBONE|DICT|INTERRES
    85   44   45 1    
    86   44  110 1    
    87   45   46 1    
    88   45   47 1    
    89   45  111 1    
    90   46  112 1    
    91   46  113 1    
    92   46  114 1    
    93   47   48 2    
    94   47   49 am   BACKBONE|DICT|INTERRES
    95   49   50 1    
    96   49  115 1    
    97   50   51 1    
    98   50   52 1    
    99   50  116 1    
   100   51  117 1    
   101   51  118 1    
   102   51  119 1    
   103   52   53 2    
   104   52   54 am   BACKBONE|DICT|INTERRES
   105   54   55 1    
   106   54  120 1    
   107   55   56 1    
   108   55   57 1    
   109   55  121 1    
   110   56  122 1    
   111   56  123 1    
   112   56  124 1    
   113   57   58 2    
   114   57   59 am   BACKBONE|DICT|INTERRES
   115   59   60 1    
   116   59  125 1    
   117   60   61 1    
   118   60   62 1    
   119   60  126 1    
   120   61  127 1    
   121   61  128 1    
   122   61  129 1    
   123   62   63 2    
   124   62   64 am   BACKBONE|DICT|INTERRES
   125   64   65 1    
   126   64  130 1    
   127   65   66 1    
   128   65   69 1    
   129   65  131 1    
   130   66   67 am   BACKBONE|DICT|INTERRES
   131   66   68 2    
   132   67  132 1    
   133   67  133 1    
   134   69   70 1    
   135   69  134 1    
   136   69  135 1    
   137   70   71 1    
   138   71  136 1    
   139   71  137 1    
@<TRIPOS>SUBSTRUCTURE
     1 UNK         1 GROUP             0       ****    0 ROOT    
