@<TRIPOS>MOLECULE
3R137
137   139    1
SMALL
USER_CHARGES


@<TRIPOS>ATOM
      1 CA         24.2350   -5.6213   -5.5223 C.3       0 UNK        -0.2020 
      2 C          24.5326   -5.0873   -4.1298 C.2       0 UNK         0.4855 
      3 O          23.6572   -4.4868   -3.5057 O.2       0 UNK        -0.5197 
      4 N          25.7665   -5.2863   -3.6478 N.am      1 UNK        -0.4892 
      5 CA         26.2903   -4.8091   -2.3620 C.3       1 UNK         0.0835 
      6 C6         27.7419   -5.3039   -2.0996 C.3       12 UNK        -0.0855 
      7 S7         28.8662   -5.2224   -3.5459 S.3       12 UNK        -0.2931 
      8 C8         30.4797   -4.8778   -2.7775 C.3       12 UNK         0.0378 
      9 C9         30.8627   -3.4057   -2.8620 C.ar      12 UNK        -0.0802 
     10 C10        31.6680   -2.9494   -3.9126 C.ar      12 UNK        -0.0944 
     11 C11        32.0926   -1.6175   -3.9544 C.ar      12 UNK        -0.0787 
     12 C12        31.6998   -0.7394   -2.9426 C.ar      12 UNK        -0.0862 
     13 C13        30.8734   -1.1735   -1.9028 C.ar      12 UNK        -0.0733 
     14 C14        30.4584   -2.5096   -1.8668 C.ar      12 UNK        -0.0832 
     15 C15        30.4461   -0.2008   -0.8102 C.3       12 UNK         0.0240 
     16 S16        29.5993    1.2726   -1.4737 S.3       12 UNK        -0.2522 
     17 C17        28.1872    0.5156   -2.3404 C.3       12 UNK        -0.0967 
     18 CA         28.2783    0.6672   -3.8831 C.3       5 UNK         0.0660 
     19 N          27.5893   -0.4254   -4.5734 N.am      5 UNK        -0.4015 
     20 C          27.5110   -0.6088   -5.8992 C.2       4 UNK         0.4946 
     21 O          28.0875    0.0854   -6.7335 O.2       4 UNK        -0.5353 
     22 CA         26.5694   -1.7198   -6.3870 C.3       4 UNK         0.0277 
     23 CB         27.2608   -3.0909   -6.3505 C.3       4 UNK        -0.1981 
     24 N          25.3283   -1.7587   -5.6116 N.am      4 UNK        -0.4209 
     25 C          24.3899   -0.8006   -5.6419 C.2       3 UNK         0.4942 
     26 O          24.4377    0.1838   -6.3790 O.2       3 UNK        -0.5208 
     27 CA         23.2290   -0.9399   -4.6446 C.3       3 UNK         0.0250 
     28 CB         22.1321   -1.8590   -5.2043 C.3       3 UNK        -0.1990 
     29 N          23.6791   -1.4300   -3.3385 N.am      3 UNK        -0.4232 
     30 C          24.4219   -0.7014   -2.4907 C.2       2 UNK         0.4993 
     31 O          24.7625    0.4609   -2.7116 O.2       2 UNK        -0.5286 
     32 CA         24.9135   -1.3913   -1.2047 C.3       2 UNK         0.0209 
     33 CB         23.8756   -1.2379   -0.0821 C.3       2 UNK        -0.1931 
     34 N          25.2402   -2.8107   -1.3809 N.am      2 UNK        -0.4546 
     35 C          26.1600   -3.2783   -2.2367 C.2       1 UNK         0.5154 
     36 O          26.8442   -2.5498   -2.9530 O.2       1 UNK        -0.5181 
     37 C          27.7626    2.0472   -4.3378 C.2       5 UNK         0.5014 
     38 O          28.5635    2.8951   -4.7334 O.2       5 UNK        -0.5248 
     39 N          26.4334    2.2330   -4.2993 N.am      6 UNK        -0.4434 
     40 CA         25.7451    3.4566   -4.7192 C.3       6 UNK         0.0363 
     41 CB         24.2541    3.3560   -4.3599 C.3       6 UNK        -0.1936 
     42 C          25.9212    3.7741   -6.2137 C.2       6 UNK         0.5081 
     43 O          26.1218    4.9372   -6.5646 O.2       6 UNK        -0.5248 
     44 N          25.8582    2.7409   -7.0641 N.am      7 UNK        -0.4718 
     45 CA         26.0788    2.8473   -8.5093 C.3       7 UNK         0.0273 
     46 CB         25.4980    1.5969   -9.1897 C.3       7 UNK        -0.1935 
     47 C          27.5590    3.0195   -8.9003 C.2       7 UNK         0.5018 
     48 O          27.8290    3.4532  -10.0210 O.2       7 UNK        -0.5186 
     49 N          28.4759    2.6385   -7.9975 N.am      8 UNK        -0.4240 
     50 CA         29.9194    2.4598   -8.1988 C.3       8 UNK         0.0235 
     51 CB         30.6196    3.8069   -8.4749 C.3       8 UNK        -0.2000 
     52 C          30.2191    1.3851   -9.2647 C.2       8 UNK         0.4941 
     53 O          31.1310    1.5545  -10.0771 O.2       8 UNK        -0.5273 
     54 N          29.4213    0.3073   -9.2560 N.am      9 UNK        -0.4262 
     55 CA         29.4076   -0.7647  -10.2518 C.3       9 UNK         0.0264 
     56 CB         28.1683   -1.6476  -10.0277 C.3       9 UNK        -0.1955 
     57 C          30.7075   -1.5838  -10.2232 C.2       9 UNK         0.5031 
     58 O          30.8464   -2.4827   -9.3920 O.2       9 UNK        -0.5390 
     59 N          31.6391   -1.2220  -11.1175 N.am      10 UNK        -0.4204 
     60 CA         33.0076   -1.7408  -11.2466 C.3       10 UNK         0.0237 
     61 CB         33.0033   -3.2350  -11.6368 C.3       10 UNK        -0.1985 
     62 C          33.9010   -1.4465  -10.0223 C.2       10 UNK         0.4970 
     63 O          34.9109   -2.1274   -9.8326 O.2       10 UNK        -0.4914 
     64 N          33.5314   -0.4371   -9.2236 N.am      11 UNK        -0.4285 
     65 CA         34.2975    0.0292   -8.0623 C.3       11 UNK         0.1007 
     66 C          35.5309    0.8742   -8.4814 C.2       11 UNK         0.5703 
     67 N          36.5797    0.8820   -7.6698 N.am      11 UNK        -0.7361 
     68 O          35.5363    1.5470   -9.5113 O.2       11 UNK        -0.4986 
     69 C69        33.4028    0.8059   -7.0631 C.3       12 UNK        -0.0947 
     70 S70        32.0760   -0.2201   -6.3436 S.3       12 UNK        -0.2240 
     71 C71        33.0050   -1.1204   -5.0642 C.3       12 UNK         0.0194 
     72 H72        25.0749   -6.1822   -5.9320 H         1 UNK         0.0906 
     73 H73        23.3692   -6.2822   -5.4925 H         1 UNK         0.0906 
     74 H74        24.0129   -4.7988   -6.2014 H         1 UNK         0.0906 
     75 H75        26.4556   -5.7523   -4.2224 H         1 UNK         0.3140 
     76 H76        25.6594   -5.2512   -1.5878 H         1 UNK         0.1085 
     77 H77        28.1822   -4.7702   -1.2553 H         1 UNK         0.0836 
     78 H78        27.7064   -6.3493   -1.7890 H         1 UNK         0.0836 
     79 H79        31.2344   -5.4808   -3.2847 H         1 UNK         0.0731 
     80 H80        30.4856   -5.2131   -1.7394 H         1 UNK         0.0731 
     81 H81        31.9813   -3.6362   -4.6870 H         1 UNK         0.1312 
     82 H82        32.0294    0.2904   -2.9703 H         1 UNK         0.1406 
     83 H83        29.8313   -2.8578   -1.0578 H         1 UNK         0.1631 
     84 H84        31.3294    0.1197   -0.2563 H         1 UNK         0.0717 
     85 H85        29.7894   -0.6884   -0.0880 H         1 UNK         0.0717 
     86 H86        28.1538   -0.5383   -2.0665 H         1 UNK         0.0934 
     87 H87        27.2659    0.9421   -1.9408 H         1 UNK         0.0934 
     88 H88        29.3255    0.5893   -4.1840 H         1 UNK         0.0739 
     89 H89        27.1571   -1.1276   -3.9746 H         1 UNK         0.3093 
     90 H90        26.3095   -1.4991   -7.4244 H         1 UNK         0.0818 
     91 H91        27.4836   -3.4013   -5.3316 H         1 UNK         0.0819 
     92 H92        26.6423   -3.8615   -6.8101 H         1 UNK         0.0819 
     93 H93        28.2090   -3.0690   -6.8889 H         1 UNK         0.0819 
     94 H94        25.2417   -2.4941   -4.9258 H         1 UNK         0.3041 
     95 H95        22.7954    0.0526   -4.5023 H         1 UNK         0.0784 
     96 H96        21.7566   -1.4800   -6.1559 H         1 UNK         0.0793 
     97 H97        22.4967   -2.8711   -5.3791 H         1 UNK         0.0793 
     98 H98        21.2829   -1.9223   -4.5237 H         1 UNK         0.0793 
     99 H99        23.4816   -2.4001   -3.1146 H         1 UNK         0.3024 
    100 H100       25.8275   -0.8809   -0.8943 H         1 UNK         0.1171 
    101 H101       23.6310   -0.1872    0.0817 H         1 UNK         0.0786 
    102 H102       24.2509   -1.6315    0.8628 H         1 UNK         0.0786 
    103 H103       22.9451   -1.7563   -0.3174 H         1 UNK         0.0786 
    104 H104       24.6826   -3.4703   -0.8569 H         1 UNK         0.2977 
    105 H105       25.8477    1.4975   -3.9092 H         1 UNK         0.3127 
    106 H106       26.1763    4.2854   -4.1538 H         1 UNK         0.0770 
    107 H107       23.7727    2.5197   -4.8683 H         1 UNK         0.0814 
    108 H108       23.7207    4.2638   -4.6450 H         1 UNK         0.0814 
    109 H109       24.1130    3.2199   -3.2875 H         1 UNK         0.0814 
    110 H110       25.6209    1.8210   -6.7037 H         1 UNK         0.2983 
    111 H111       25.5395    3.7219   -8.8797 H         1 UNK         0.0947 
    112 H112       25.6300    1.6391  -10.2717 H         1 UNK         0.0806 
    113 H113       24.4294    1.5007   -8.9963 H         1 UNK         0.0806 
    114 H114       25.9836    0.6871   -8.8352 H         1 UNK         0.0806 
    115 H115       28.1247    2.2532   -7.1282 H         1 UNK         0.3000 
    116 H116       30.3056    2.0726   -7.2550 H         1 UNK         0.0850 
    117 H117       31.7031    3.6857   -8.4967 H         1 UNK         0.0810 
    118 H118       30.3904    4.5373   -7.6991 H         1 UNK         0.0810 
    119 H119       30.3226    4.2300   -9.4348 H         1 UNK         0.0810 
    120 H120       28.7853    0.2095   -8.4666 H         1 UNK         0.3040 
    121 H121       29.3080   -0.3033  -11.2366 H         1 UNK         0.0766 
    122 H122       27.2471   -1.0733  -10.1243 H         1 UNK         0.0812 
    123 H123       28.1766   -2.1068   -9.0402 H         1 UNK         0.0812 
    124 H124       28.1268   -2.4540  -10.7609 H         1 UNK         0.0812 
    125 H125       31.4274   -0.4248  -11.7038 H         1 UNK         0.3205 
    126 H126       33.4566   -1.1903  -12.0745 H         1 UNK         0.0754 
    127 H127       34.0074   -3.5771  -11.8905 H         1 UNK         0.0769 
    128 H128       32.3726   -3.4163  -12.5071 H         1 UNK         0.0769 
    129 H129       32.6429   -3.8656  -10.8235 H         1 UNK         0.0769 
    130 H130       32.7154    0.1083   -9.4700 H         1 UNK         0.2981 
    131 H131       34.6789   -0.8540   -7.5460 H         1 UNK         0.0541 
    132 H132       36.5866    0.3427   -6.8181 H         1 UNK         0.3459 
    133 H133       37.3854    1.4348   -7.9179 H         1 UNK         0.3459 
    134 H134       33.9968    1.2202   -6.2464 H         1 UNK         0.0612 
    135 H135       32.9407    1.6616   -7.5575 H         1 UNK         0.0612 
    136 H136       33.7680   -0.4716   -4.6319 H         1 UNK         0.0624 
    137 H137       33.5357   -1.9529   -5.5284 H         1 UNK         0.0624 
@<TRIPOS>BOND
     1    1    2 1    
     2    1   72 1    
     3    1   73 1    
     4    1   74 1    
     5    2    3 2    
     6    2    4 am   BACKBONE|DICT|INTERRES
     7    4    5 1    
     8    4   75 1    
     9    5    6 1    
    10    5   35 1    
    11    5   76 1    
    12    6    7 1    
    13    6   77 1    
    14    6   78 1    
    15    7    8 1    
    16    8    9 1    
    17    8   79 1    
    18    8   80 1    
    19    9   10 ar   
    20    9   14 ar   
    21   10   11 ar   
    22   10   81 1    
    23   11   12 ar   
    24   11   71 1    
    25   12   13 ar   
    26   12   82 1    
    27   13   14 ar   
    28   13   15 1    
    29   14   83 1    
    30   15   16 1    
    31   15   84 1    
    32   15   85 1    
    33   16   17 1    
    34   17   18 1    
    35   17   86 1    
    36   17   87 1    
    37   18   19 1    
    38   18   37 1    
    39   18   88 1    
    40   19   20 am   BACKBONE|DICT|INTERRES
    41   19   89 1    
    42   20   21 2    
    43   20   22 1    
    44   22   23 1    
    45   22   24 1    
    46   22   90 1    
    47   23   91 1    
    48   23   92 1    
    49   23   93 1    
    50   24   25 am   BACKBONE|DICT|INTERRES
    51   24   94 1    
    52   25   26 2    
    53   25   27 1    
    54   27   28 1    
    55   27   29 1    
    56   27   95 1    
    57   28   96 1    
    58   28   97 1    
    59   28   98 1    
    60   29   30 am   BACKBONE|DICT|INTERRES
    61   29   99 1    
    62   30   31 2    
    63   30   32 1    
    64   32   33 1    
    65   32   34 1    
    66   32  100 1    
    67   33  101 1    
    68   33  102 1    
    69   33  103 1    
    70   34   35 am   BACKBONE|DICT|INTERRES
    71   34  104 1    
    72   35   36 2    
    73   37   38 2    
    74   37   39 am   BACKBONE|DICT|INTERRES
    75   39   40 1    
    76   39  105 1    
    77   40   41 1    
    78   40   42 1    
    79   40  106 1    
    80   41  107 1    
    81   41  108 1    
    82   41  109 1    
    83   42   43 2    
    84   42   44 am   BACKBONE|DICT|INTERRES
    85   44   45 1    
    86   44  110 1    
    87   45   46 1    
    88   45   47 1    
    89   45  111 1    
    90   46  112 1    
    91   46  113 1    
    92   46  114 1    
    93   47   48 2    
    94   47   49 am   BACKBONE|DICT|INTERRES
    95   49   50 1    
    96   49  115 1    
    97   50   51 1    
    98   50   52 1    
    99   50  116 1    
   100   51  117 1    
   101   51  118 1    
   102   51  119 1    
   103   52   53 2    
   104   52   54 am   BACKBONE|DICT|INTERRES
   105   54   55 1    
   106   54  120 1    
   107   55   56 1    
   108   55   57 1    
   109   55  121 1    
   110   56  122 1    
   111   56  123 1    
   112   56  124 1    
   113   57   58 2    
   114   57   59 am   BACKBONE|DICT|INTERRES
   115   59   60 1    
   116   59  125 1    
   117   60   61 1    
   118   60   62 1    
   119   60  126 1    
   120   61  127 1    
   121   61  128 1    
   122   61  129 1    
   123   62   63 2    
   124   62   64 am   BACKBONE|DICT|INTERRES
   125   64   65 1    
   126   64  130 1    
   127   65   66 1    
   128   65   69 1    
   129   65  131 1    
   130   66   67 am   BACKBONE|DICT|INTERRES
   131   66   68 2    
   132   67  132 1    
   133   67  133 1    
   134   69   70 1    
   135   69  134 1    
   136   69  135 1    
   137   70   71 1    
   138   71  136 1    
   139   71  137 1    
@<TRIPOS>SUBSTRUCTURE
     1 UNK         1 GROUP             0       ****    0 ROOT    
