@<TRIPOS>MOLECULE
3R137
137   139    1
SMALL
USER_CHARGES


@<TRIPOS>ATOM
      1 CA         26.1713   -6.0231    1.0222 C.3       0 UNK        -0.2020 
      2 C          26.4657   -4.7872    0.1859 C.2       0 UNK         0.4855 
      3 O          26.6332   -3.6981    0.7369 O.2       0 UNK        -0.5197 
      4 N          26.5322   -4.9417   -1.1424 N.am      1 UNK        -0.4892 
      5 CA         26.7827   -3.8626   -2.1013 C.3       1 UNK         0.0835 
      6 C6         27.3534   -4.3945   -3.4419 C.3       12 UNK        -0.0855 
      7 S7         28.9361   -5.2849   -3.2707 S.3       12 UNK        -0.2931 
      8 C8         29.9217   -4.5421   -4.6244 C.3       12 UNK         0.0378 
      9 C9         30.6130   -3.2133   -4.3042 C.ar      12 UNK        -0.0802 
     10 C10        31.5936   -2.7462   -5.1853 C.ar      12 UNK        -0.0944 
     11 C11        32.2969   -1.5659   -4.9235 C.ar      12 UNK        -0.0787 
     12 C12        31.9889   -0.8244   -3.7783 C.ar      12 UNK        -0.0862 
     13 C13        30.9987   -1.2653   -2.8955 C.ar      12 UNK        -0.0733 
     14 C14        30.3259   -2.4604   -3.1593 C.ar      12 UNK        -0.0832 
     15 C15        30.6754   -0.4765   -1.6342 C.3       12 UNK         0.0240 
     16 S16        29.5946    0.9501   -1.9664 S.3       12 UNK        -0.2522 
     17 C17        28.0651    0.1714   -2.5957 C.3       12 UNK        -0.0967 
     18 CA         27.9326    0.2980   -4.1349 C.3       5 UNK         0.0660 
     19 N          26.9146   -0.5974   -4.6938 N.am      5 UNK        -0.4015 
     20 C          26.8877   -0.9806   -5.9804 C.2       4 UNK         0.4946 
     21 O          27.7965   -0.7448   -6.7752 O.2       4 UNK        -0.5353 
     22 CA         25.6265   -1.6959   -6.4993 C.3       4 UNK         0.0277 
     23 CB         25.8406   -3.2094   -6.6569 C.3       4 UNK        -0.1981 
     24 N          24.4395   -1.4371   -5.6803 N.am      4 UNK        -0.4209 
     25 C          23.7399   -0.2941   -5.7378 C.2       3 UNK         0.4942 
     26 O          24.0066    0.6223   -6.5131 O.2       3 UNK        -0.5208 
     27 CA         22.5866   -0.1075   -4.7353 C.3       3 UNK         0.0250 
     28 CB         21.2738   -0.6494   -5.3215 C.3       3 UNK        -0.1990 
     29 N          22.8279   -0.7213   -3.4266 N.am      3 UNK        -0.4232 
     30 C          23.8655   -0.4494   -2.6231 C.2       2 UNK         0.4993 
     31 O          24.7422    0.3713   -2.9009 O.2       2 UNK        -0.5286 
     32 CA         23.9991   -1.2755   -1.3286 C.3       2 UNK         0.0209 
     33 CB         22.7374   -2.0932   -0.9690 C.3       2 UNK        -0.1931 
     34 N          25.1737   -2.1585   -1.3629 N.am      2 UNK        -0.4546 
     35 C          25.4944   -3.0419   -2.3206 C.2       1 UNK         0.5154 
     36 O          24.8158   -3.2276   -3.3334 O.2       1 UNK        -0.5181 
     37 C          27.6479    1.7479   -4.5749 C.2       5 UNK         0.5014 
     38 O          28.5711    2.4394   -5.0028 O.2       5 UNK        -0.5248 
     39 N          26.3730    2.1667   -4.5167 N.am      6 UNK        -0.4434 
     40 CA         25.9034    3.4754   -4.9869 C.3       6 UNK         0.0363 
     41 CB         24.4215    3.6581   -4.6238 C.3       6 UNK        -0.1936 
     42 C          26.1328    3.6938   -6.4947 C.2       6 UNK         0.5081 
     43 O          26.5600    4.7780   -6.8913 O.2       6 UNK        -0.5248 
     44 N          25.8881    2.6511   -7.3012 N.am      7 UNK        -0.4718 
     45 CA         26.1992    2.6106   -8.7348 C.3       7 UNK         0.0273 
     46 CB         25.3937    1.4770   -9.3899 C.3       7 UNK        -0.1935 
     47 C          27.7015    2.4373   -9.0375 C.2       7 UNK         0.5018 
     48 O          28.1038    2.6569  -10.1804 O.2       7 UNK        -0.5186 
     49 N          28.4872    2.0459   -8.0232 N.am      8 UNK        -0.4240 
     50 CA         29.9292    1.7871   -8.0360 C.3       8 UNK         0.0235 
     51 CB         30.7073    3.1008   -8.2446 C.3       8 UNK        -0.2000 
     52 C          30.3175    0.6704   -9.0227 C.2       8 UNK         0.4941 
     53 O          31.1636    0.8735   -9.8997 O.2       8 UNK        -0.5273 
     54 N          29.6726   -0.4938   -8.8633 N.am      9 UNK        -0.4262 
     55 CA         29.8720   -1.7041   -9.6618 C.3       9 UNK         0.0264 
     56 CB         28.9142   -2.7991   -9.1629 C.3       9 UNK        -0.1955 
     57 C          31.3336   -2.1835   -9.6250 C.2       9 UNK         0.5031 
     58 O          31.7779   -2.7083   -8.6036 O.2       9 UNK        -0.5390 
     59 N          32.0455   -1.9656  -10.7391 N.am      10 UNK        -0.4204 
     60 CA         33.4744   -2.2287  -10.9467 C.3       10 UNK         0.0237 
     61 CB         33.7951   -3.7348  -10.8195 C.3       10 UNK        -0.1985 
     62 C          34.4080   -1.3404  -10.0955 C.2       10 UNK         0.4970 
     63 O          35.5506   -1.7339   -9.8518 O.2       10 UNK        -0.4914 
     64 N          33.9396   -0.1500   -9.6979 N.am      11 UNK        -0.4285 
     65 CA         34.7401    0.8699   -9.0002 C.3       11 UNK         0.1007 
     66 C          34.4353    2.3350   -9.4189 C.2       11 UNK         0.5703 
     67 N          33.4079    2.6130  -10.2114 N.am      11 UNK        -0.7361 
     68 O          35.1808    3.2417   -9.0548 O.2       11 UNK        -0.4986 
     69 C69        34.8030    0.6626   -7.4609 C.3       12 UNK        -0.0947 
     70 S70        33.1827    0.4650   -6.6360 S.3       12 UNK        -0.2240 
     71 C71        33.4456   -1.1461   -5.8317 C.3       12 UNK         0.0194 
     72 H72        25.2520   -5.8812    1.5898 H         1 UNK         0.0906 
     73 H73        26.0559   -6.9148    0.4063 H         1 UNK         0.0906 
     74 H74        26.9832   -6.2007    1.7269 H         1 UNK         0.0906 
     75 H75        26.3830   -5.8558   -1.5465 H         1 UNK         0.3140 
     76 H76        27.5222   -3.1879   -1.6684 H         1 UNK         0.1085 
     77 H77        27.5017   -3.5608   -4.1301 H         1 UNK         0.0836 
     78 H78        26.6443   -5.0713   -3.9224 H         1 UNK         0.0836 
     79 H79        29.2925   -4.4154   -5.5069 H         1 UNK         0.0731 
     80 H80        30.6873   -5.2684   -4.9017 H         1 UNK         0.0731 
     81 H81        31.8349   -3.3251   -6.0667 H         1 UNK         0.1312 
     82 H82        32.5310    0.0874   -3.5672 H         1 UNK         0.1406 
     83 H83        29.5899   -2.8036   -2.4516 H         1 UNK         0.1631 
     84 H84        31.6022   -0.1162   -1.1854 H         1 UNK         0.0717 
     85 H85        30.2064   -1.1161   -0.8847 H         1 UNK         0.0717 
     86 H86        28.0572   -0.8768   -2.3012 H         1 UNK         0.0934 
     87 H87        27.2137    0.6250   -2.0857 H         1 UNK         0.0934 
     88 H88        28.8929    0.0090   -4.5700 H         1 UNK         0.0739 
     89 H89        26.0916   -0.7482   -4.1250 H         1 UNK         0.3093 
     90 H90        25.4445   -1.3007   -7.5004 H         1 UNK         0.0818 
     91 H91        26.8035   -3.4319   -7.1173 H         1 UNK         0.0819 
     92 H92        25.0715   -3.6445   -7.2950 H         1 UNK         0.0819 
     93 H93        25.8029   -3.7321   -5.7050 H         1 UNK         0.0819 
     94 H94        24.2064   -2.1309   -4.9760 H         1 UNK         0.3041 
     95 H95        22.4683    0.9652   -4.5717 H         1 UNK         0.0784 
     96 H96        21.0594   -0.1899   -6.2877 H         1 UNK         0.0793 
     97 H97        21.3145   -1.7285   -5.4756 H         1 UNK         0.0793 
     98 H98        20.4278   -0.4339   -4.6685 H         1 UNK         0.0793 
     99 H99        22.1782   -1.4373   -3.1351 H         1 UNK         0.3024 
    100 H100       24.1676   -0.5527   -0.5285 H         1 UNK         0.1171 
    101 H101       22.8538   -2.5761    0.0014 H         1 UNK         0.0786 
    102 H102       21.8559   -1.4540   -0.8993 H         1 UNK         0.0786 
    103 H103       22.5285   -2.8775   -1.6977 H         1 UNK         0.0786 
    104 H104       25.7688   -2.1320   -0.5423 H         1 UNK         0.2977 
    105 H105       25.6805    1.5541   -4.0929 H         1 UNK         0.3127 
    106 H106       26.4781    4.2357   -4.4538 H         1 UNK         0.0770 
    107 H107       23.7851    2.9458   -5.1481 H         1 UNK         0.0814 
    108 H108       24.0774    4.6577   -4.8924 H         1 UNK         0.0814 
    109 H109       24.2547    3.5337   -3.5536 H         1 UNK         0.0814 
    110 H110       25.4303    1.8303   -6.9113 H         1 UNK         0.2983 
    111 H111       25.8845    3.5565   -9.1811 H         1 UNK         0.0947 
    112 H112       25.5432    1.4647  -10.4703 H         1 UNK         0.0806 
    113 H113       24.3244    1.5931   -9.2118 H         1 UNK         0.0806 
    114 H114       25.6941    0.5010   -9.0091 H         1 UNK         0.0806 
    115 H115       28.0442    1.9066   -7.1247 H         1 UNK         0.3000 
    116 H116       30.1778    1.4149   -7.0407 H         1 UNK         0.0850 
    117 H117       31.7693    2.9512   -8.0542 H         1 UNK         0.0810 
    118 H118       30.3665    3.8748   -7.5569 H         1 UNK         0.0810 
    119 H119       30.6001    3.4816   -9.2607 H         1 UNK         0.0810 
    120 H120       29.0038   -0.5695   -8.0964 H         1 UNK         0.3040 
    121 H121       29.6018   -1.4654  -10.6922 H         1 UNK         0.0766 
    122 H122       27.8738   -2.4878   -9.2575 H         1 UNK         0.0812 
    123 H123       29.0969   -3.0428   -8.1152 H         1 UNK         0.0812 
    124 H124       29.0345   -3.7174   -9.7388 H         1 UNK         0.0812 
    125 H125       31.5814   -1.4913  -11.5023 H         1 UNK         0.3205 
    126 H126       33.6750   -1.9464  -11.9811 H         1 UNK         0.0754 
    127 H127       34.8126   -3.9480  -11.1495 H         1 UNK         0.0769 
    128 H128       33.1253   -4.3370  -11.4334 H         1 UNK         0.0769 
    129 H129       33.7107   -4.0824   -9.7895 H         1 UNK         0.0769 
    130 H130       32.9749    0.1005   -9.8889 H         1 UNK         0.2981 
    131 H131       35.7654    0.7494   -9.3559 H         1 UNK         0.0541 
    132 H132       33.2594    3.5693  -10.4893 H         1 UNK         0.3459 
    133 H133       32.6928    1.9213  -10.4058 H         1 UNK         0.3459 
    134 H134       35.4113   -0.2202   -7.2600 H         1 UNK         0.0612 
    135 H135       35.3334    1.4848   -6.9776 H         1 UNK         0.0612 
    136 H136       33.6181   -1.8947   -6.6071 H         1 UNK         0.0624 
    137 H137       34.3581   -1.1021   -5.2356 H         1 UNK         0.0624 
@<TRIPOS>BOND
     1    1    2 1    
     2    1   72 1    
     3    1   73 1    
     4    1   74 1    
     5    2    3 2    
     6    2    4 am   BACKBONE|DICT|INTERRES
     7    4    5 1    
     8    4   75 1    
     9    5    6 1    
    10    5   35 1    
    11    5   76 1    
    12    6    7 1    
    13    6   77 1    
    14    6   78 1    
    15    7    8 1    
    16    8    9 1    
    17    8   79 1    
    18    8   80 1    
    19    9   10 ar   
    20    9   14 ar   
    21   10   11 ar   
    22   10   81 1    
    23   11   12 ar   
    24   11   71 1    
    25   12   13 ar   
    26   12   82 1    
    27   13   14 ar   
    28   13   15 1    
    29   14   83 1    
    30   15   16 1    
    31   15   84 1    
    32   15   85 1    
    33   16   17 1    
    34   17   18 1    
    35   17   86 1    
    36   17   87 1    
    37   18   19 1    
    38   18   37 1    
    39   18   88 1    
    40   19   20 am   BACKBONE|DICT|INTERRES
    41   19   89 1    
    42   20   21 2    
    43   20   22 1    
    44   22   23 1    
    45   22   24 1    
    46   22   90 1    
    47   23   91 1    
    48   23   92 1    
    49   23   93 1    
    50   24   25 am   BACKBONE|DICT|INTERRES
    51   24   94 1    
    52   25   26 2    
    53   25   27 1    
    54   27   28 1    
    55   27   29 1    
    56   27   95 1    
    57   28   96 1    
    58   28   97 1    
    59   28   98 1    
    60   29   30 am   BACKBONE|DICT|INTERRES
    61   29   99 1    
    62   30   31 2    
    63   30   32 1    
    64   32   33 1    
    65   32   34 1    
    66   32  100 1    
    67   33  101 1    
    68   33  102 1    
    69   33  103 1    
    70   34   35 am   BACKBONE|DICT|INTERRES
    71   34  104 1    
    72   35   36 2    
    73   37   38 2    
    74   37   39 am   BACKBONE|DICT|INTERRES
    75   39   40 1    
    76   39  105 1    
    77   40   41 1    
    78   40   42 1    
    79   40  106 1    
    80   41  107 1    
    81   41  108 1    
    82   41  109 1    
    83   42   43 2    
    84   42   44 am   BACKBONE|DICT|INTERRES
    85   44   45 1    
    86   44  110 1    
    87   45   46 1    
    88   45   47 1    
    89   45  111 1    
    90   46  112 1    
    91   46  113 1    
    92   46  114 1    
    93   47   48 2    
    94   47   49 am   BACKBONE|DICT|INTERRES
    95   49   50 1    
    96   49  115 1    
    97   50   51 1    
    98   50   52 1    
    99   50  116 1    
   100   51  117 1    
   101   51  118 1    
   102   51  119 1    
   103   52   53 2    
   104   52   54 am   BACKBONE|DICT|INTERRES
   105   54   55 1    
   106   54  120 1    
   107   55   56 1    
   108   55   57 1    
   109   55  121 1    
   110   56  122 1    
   111   56  123 1    
   112   56  124 1    
   113   57   58 2    
   114   57   59 am   BACKBONE|DICT|INTERRES
   115   59   60 1    
   116   59  125 1    
   117   60   61 1    
   118   60   62 1    
   119   60  126 1    
   120   61  127 1    
   121   61  128 1    
   122   61  129 1    
   123   62   63 2    
   124   62   64 am   BACKBONE|DICT|INTERRES
   125   64   65 1    
   126   64  130 1    
   127   65   66 1    
   128   65   69 1    
   129   65  131 1    
   130   66   67 am   BACKBONE|DICT|INTERRES
   131   66   68 2    
   132   67  132 1    
   133   67  133 1    
   134   69   70 1    
   135   69  134 1    
   136   69  135 1    
   137   70   71 1    
   138   71  136 1    
   139   71  137 1    
@<TRIPOS>SUBSTRUCTURE
     1 UNK         1 GROUP             0       ****    0 ROOT    
