@<TRIPOS>MOLECULE
3R137
137   139    1
SMALL
USER_CHARGES


@<TRIPOS>ATOM
      1 CA         23.3473   -7.9406   -5.2113 C.3       0 UNK        -0.2020 
      2 C          24.4086   -7.1233   -4.4903 C.2       0 UNK         0.4855 
      3 O          24.7548   -7.4379   -3.3512 O.2       0 UNK        -0.5197 
      4 N          24.9334   -6.0801   -5.1455 N.am      1 UNK        -0.4892 
      5 CA         25.9051   -5.1427   -4.5797 C.3       1 UNK         0.0835 
      6 C6         26.7096   -4.4381   -5.7043 C.3       12 UNK        -0.0855 
      7 S7         27.8315   -3.1076   -5.1577 S.3       12 UNK        -0.2931 
      8 C8         29.1032   -4.0157   -4.2249 C.3       12 UNK         0.0378 
      9 C9         30.1502   -3.0529   -3.6866 C.ar      12 UNK        -0.0802 
     10 C10        31.4565   -3.0634   -4.1850 C.ar      12 UNK        -0.0944 
     11 C11        32.3965   -2.1323   -3.7316 C.ar      12 UNK        -0.0787 
     12 C12        32.0245   -1.1918   -2.7667 C.ar      12 UNK        -0.0862 
     13 C13        30.7234   -1.1765   -2.2563 C.ar      12 UNK        -0.0733 
     14 C14        29.7982   -2.1228   -2.7049 C.ar      12 UNK        -0.0832 
     15 C15        30.3084   -0.1225   -1.2399 C.3       12 UNK         0.0240 
     16 S16        28.9305    0.9104   -1.8381 S.3       12 UNK        -0.2522 
     17 C17        29.6098    1.6205   -3.3785 C.3       12 UNK        -0.0967 
     18 CA         29.0496    0.9489   -4.6619 C.3       5 UNK         0.0660 
     19 N          27.5841    0.8786   -4.6658 N.am      5 UNK        -0.4015 
     20 C          26.7998    0.3676   -5.6244 C.2       4 UNK         0.4946 
     21 O          27.2202   -0.0018   -6.7235 O.2       4 UNK        -0.5353 
     22 CA         25.2875    0.2721   -5.3216 C.3       4 UNK         0.0277 
     23 CB         24.5667   -0.7069   -6.2661 C.3       4 UNK        -0.1981 
     24 N          24.9717   -0.0920   -3.9330 N.am      4 UNK        -0.4209 
     25 C          25.0225    0.7475   -2.8875 C.2       3 UNK         0.4942 
     26 O          25.4352    1.9040   -2.9832 O.2       3 UNK        -0.5208 
     27 CA         24.5376    0.2524   -1.5124 C.3       3 UNK         0.0250 
     28 CB         23.2504    0.9879   -1.1018 C.3       3 UNK        -0.1990 
     29 N          24.2953   -1.1894   -1.4440 N.am      3 UNK        -0.4232 
     30 C          25.2479   -2.1183   -1.2987 C.2       2 UNK         0.4993 
     31 O          26.4490   -1.8600   -1.2243 O.2       2 UNK        -0.5286 
     32 CA         24.7983   -3.5891   -1.2148 C.3       2 UNK         0.0209 
     33 CB         23.2672   -3.7921   -1.1191 C.3       2 UNK        -0.1931 
     34 N          25.3583   -4.3785   -2.3159 N.am      2 UNK        -0.4546 
     35 C          25.1704   -4.1741   -3.6281 C.2       1 UNK         0.5154 
     36 O          24.4410   -3.2940   -4.0931 O.2       1 UNK        -0.5181 
     37 C          29.6106    1.6374   -5.9183 C.2       5 UNK         0.5014 
     38 O          30.4297    1.0510   -6.6239 O.2       5 UNK        -0.5248 
     39 N          29.1379    2.8595   -6.1929 N.am      6 UNK        -0.4434 
     40 CA         29.5094    3.6270   -7.3829 C.3       6 UNK         0.0363 
     41 CB         29.4600    5.1264   -7.0489 C.3       6 UNK        -0.1936 
     42 C          28.6115    3.3198   -8.5933 C.2       6 UNK         0.5081 
     43 O          29.0397    3.5430   -9.7248 O.2       6 UNK        -0.5248 
     44 N          27.3829    2.8484   -8.3435 N.am      7 UNK        -0.4718 
     45 CA         26.3588    2.6386   -9.3675 C.3       7 UNK         0.0273 
     46 CB         24.9663    2.6733   -8.7164 C.3       7 UNK        -0.1935 
     47 C          26.5547    1.3429  -10.1684 C.2       7 UNK         0.5018 
     48 O          26.4279    1.3752  -11.3933 O.2       7 UNK        -0.5186 
     49 N          26.8340    0.2332   -9.4727 N.am      8 UNK        -0.4240 
     50 CA         26.9776   -1.0959  -10.0653 C.3       8 UNK         0.0235 
     51 CB         26.1602   -2.1202   -9.2576 C.3       8 UNK        -0.2000 
     52 C          28.4498   -1.5089  -10.1314 C.2       8 UNK         0.4941 
     53 O          28.9291   -1.8525  -11.2126 O.2       8 UNK        -0.5273 
     54 N          29.1376   -1.4886   -8.9810 N.am      9 UNK        -0.4262 
     55 CA         30.5141   -1.9806   -8.8615 C.3       9 UNK         0.0264 
     56 CB         30.7812   -2.3915   -7.4084 C.3       9 UNK        -0.1955 
     57 C          31.5807   -0.9908   -9.3621 C.2       9 UNK         0.5031 
     58 O          32.6843   -1.4266   -9.6938 O.2       9 UNK        -0.5390 
     59 N          31.2367    0.3049   -9.4103 N.am      10 UNK        -0.4204 
     60 CA         32.0916    1.4415   -9.7804 C.3       10 UNK         0.0237 
     61 CB         32.5187    1.3593  -11.2618 C.3       10 UNK        -0.1985 
     62 C          33.2788    1.6456   -8.8148 C.2       10 UNK         0.4970 
     63 O          34.3578    2.0593   -9.2428 O.2       10 UNK        -0.4914 
     64 N          33.0499    1.3672   -7.5263 N.am      11 UNK        -0.4285 
     65 CA         34.0195    1.5176   -6.4308 C.3       11 UNK         0.1007 
     66 C          34.1241    2.9666   -5.8714 C.2       11 UNK         0.5703 
     67 N          33.3096    3.9177   -6.3141 N.am      11 UNK        -0.7361 
     68 O          34.9733    3.2380   -5.0258 O.2       11 UNK        -0.4986 
     69 C69        33.7431    0.4962   -5.2961 C.3       12 UNK        -0.0947 
     70 S70        33.9311   -1.2277   -5.8586 S.3       12 UNK        -0.2240 
     71 C71        33.8126   -2.1399   -4.2886 C.3       12 UNK         0.0194 
     72 H72        23.1472   -7.5588   -6.2123 H         1 UNK         0.0906 
     73 H73        23.6700   -8.9774   -5.3025 H         1 UNK         0.0906 
     74 H74        22.4142   -7.9225   -4.6488 H         1 UNK         0.0906 
     75 H75        24.5856   -5.8475   -6.0652 H         1 UNK         0.3140 
     76 H76        26.6219   -5.7193   -3.9912 H         1 UNK         0.1085 
     77 H77        27.2938   -5.1733   -6.2599 H         1 UNK         0.0836 
     78 H78        26.0235   -3.9961   -6.4287 H         1 UNK         0.0836 
     79 H79        29.5587   -4.7685   -4.8701 H         1 UNK         0.0731 
     80 H80        28.6441   -4.5467   -3.3905 H         1 UNK         0.0731 
     81 H81        31.7390   -3.7809   -4.9429 H         1 UNK         0.1312 
     82 H82        32.7467   -0.4633   -2.4243 H         1 UNK         0.1406 
     83 H83        28.7851   -2.1022   -2.3254 H         1 UNK         0.1631 
     84 H84        31.1480    0.5239   -0.9793 H         1 UNK         0.0717 
     85 H85        30.0021   -0.6188   -0.3181 H         1 UNK         0.0717 
     86 H86        29.3781    2.6871   -3.3667 H         1 UNK         0.0934 
     87 H87        30.6994    1.5525   -3.3577 H         1 UNK         0.0934 
     88 H88        29.4035   -0.0836   -4.6874 H         1 UNK         0.0739 
     89 H89        27.1267    1.1956   -3.8178 H         1 UNK         0.3093 
     90 H90        24.8743    1.2653   -5.5084 H         1 UNK         0.0818 
     91 H91        24.6587   -0.3951   -7.3061 H         1 UNK         0.0819 
     92 H92        24.9833   -1.7114   -6.1905 H         1 UNK         0.0819 
     93 H93        23.5016   -0.7682   -6.0430 H         1 UNK         0.0819 
     94 H94        24.6841   -1.0514   -3.7771 H         1 UNK         0.3041 
     95 H95        25.3173    0.5066   -0.7906 H         1 UNK         0.0784 
     96 H96        23.4011    2.0685   -1.0968 H         1 UNK         0.0793 
     97 H97        22.4283    0.7773   -1.7872 H         1 UNK         0.0793 
     98 H98        22.9335    0.7041   -0.0980 H         1 UNK         0.0793 
     99 H99        23.3356   -1.4946   -1.5200 H         1 UNK         0.3024 
    100 H100       25.2377   -3.9809   -0.2958 H         1 UNK         0.1171 
    101 H101       23.0242   -4.8480   -0.9981 H         1 UNK         0.0786 
    102 H102       22.8525   -3.2722   -0.2543 H         1 UNK         0.0786 
    103 H103       22.7413   -3.4383   -2.0065 H         1 UNK         0.0786 
    104 H104       25.9635   -5.1381   -2.0362 H         1 UNK         0.2977 
    105 H105       28.4668    3.2778   -5.5645 H         1 UNK         0.3127 
    106 H106       30.5347    3.3839   -7.6660 H         1 UNK         0.0770 
    107 H107       28.4570    5.4459   -6.7629 H         1 UNK         0.0814 
    108 H108       29.7599    5.7276   -7.9086 H         1 UNK         0.0814 
    109 H109       30.1377    5.3732   -6.2314 H         1 UNK         0.0814 
    110 H110       27.1270    2.6510   -7.3886 H         1 UNK         0.2983 
    111 H111       26.4101    3.4681  -10.0772 H         1 UNK         0.0947 
    112 H112       24.1836    2.5272   -9.4622 H         1 UNK         0.0806 
    113 H113       24.7776    3.6334   -8.2359 H         1 UNK         0.0806 
    114 H114       24.8485    1.8938   -7.9651 H         1 UNK         0.0806 
    115 H115       26.9528    0.2906   -8.4614 H         1 UNK         0.3000 
    116 H116       26.5881   -1.1009  -11.0858 H         1 UNK         0.0850 
    117 H117       26.2668   -3.1216   -9.6766 H         1 UNK         0.0810 
    118 H118       25.0982   -1.8762   -9.2724 H         1 UNK         0.0810 
    119 H119       26.4782   -2.1689   -8.2156 H         1 UNK         0.0810 
    120 H120       28.6748   -1.1875   -8.1306 H         1 UNK         0.3040 
    121 H121       30.6098   -2.8805   -9.4732 H         1 UNK         0.0766 
    122 H122       30.6651   -1.5574   -6.7163 H         1 UNK         0.0812 
    123 H123       31.7962   -2.7729   -7.2944 H         1 UNK         0.0812 
    124 H124       30.1048   -3.1855   -7.0945 H         1 UNK         0.0812 
    125 H125       30.3220    0.5415   -9.0513 H         1 UNK         0.3205 
    126 H126       31.4708    2.3309   -9.6771 H         1 UNK         0.0754 
    127 H127       33.0222    2.2748  -11.5747 H         1 UNK         0.0769 
    128 H128       31.6563    1.2262  -11.9151 H         1 UNK         0.0769 
    129 H129       33.2073    0.5332  -11.4414 H         1 UNK         0.0769 
    130 H130       32.1158    1.0723   -7.2459 H         1 UNK         0.2981 
    131 H131       35.0103    1.2943   -6.8308 H         1 UNK         0.0541 
    132 H132       32.6247    3.7120   -7.0201 H         1 UNK         0.3459 
    133 H133       33.3982    4.8516   -5.9464 H         1 UNK         0.3459 
    134 H134       32.7344    0.6311   -4.9022 H         1 UNK         0.0612 
    135 H135       34.4290    0.6482   -4.4607 H         1 UNK         0.0612 
    136 H136       34.1319   -3.1691   -4.4582 H         1 UNK         0.0624 
    137 H137       34.5144   -1.7188   -3.5670 H         1 UNK         0.0624 
@<TRIPOS>BOND
     1    1    2 1    
     2    1   72 1    
     3    1   73 1    
     4    1   74 1    
     5    2    3 2    
     6    2    4 am   BACKBONE|DICT|INTERRES
     7    4    5 1    
     8    4   75 1    
     9    5    6 1    
    10    5   35 1    
    11    5   76 1    
    12    6    7 1    
    13    6   77 1    
    14    6   78 1    
    15    7    8 1    
    16    8    9 1    
    17    8   79 1    
    18    8   80 1    
    19    9   10 ar   
    20    9   14 ar   
    21   10   11 ar   
    22   10   81 1    
    23   11   12 ar   
    24   11   71 1    
    25   12   13 ar   
    26   12   82 1    
    27   13   14 ar   
    28   13   15 1    
    29   14   83 1    
    30   15   16 1    
    31   15   84 1    
    32   15   85 1    
    33   16   17 1    
    34   17   18 1    
    35   17   86 1    
    36   17   87 1    
    37   18   19 1    
    38   18   37 1    
    39   18   88 1    
    40   19   20 am   BACKBONE|DICT|INTERRES
    41   19   89 1    
    42   20   21 2    
    43   20   22 1    
    44   22   23 1    
    45   22   24 1    
    46   22   90 1    
    47   23   91 1    
    48   23   92 1    
    49   23   93 1    
    50   24   25 am   BACKBONE|DICT|INTERRES
    51   24   94 1    
    52   25   26 2    
    53   25   27 1    
    54   27   28 1    
    55   27   29 1    
    56   27   95 1    
    57   28   96 1    
    58   28   97 1    
    59   28   98 1    
    60   29   30 am   BACKBONE|DICT|INTERRES
    61   29   99 1    
    62   30   31 2    
    63   30   32 1    
    64   32   33 1    
    65   32   34 1    
    66   32  100 1    
    67   33  101 1    
    68   33  102 1    
    69   33  103 1    
    70   34   35 am   BACKBONE|DICT|INTERRES
    71   34  104 1    
    72   35   36 2    
    73   37   38 2    
    74   37   39 am   BACKBONE|DICT|INTERRES
    75   39   40 1    
    76   39  105 1    
    77   40   41 1    
    78   40   42 1    
    79   40  106 1    
    80   41  107 1    
    81   41  108 1    
    82   41  109 1    
    83   42   43 2    
    84   42   44 am   BACKBONE|DICT|INTERRES
    85   44   45 1    
    86   44  110 1    
    87   45   46 1    
    88   45   47 1    
    89   45  111 1    
    90   46  112 1    
    91   46  113 1    
    92   46  114 1    
    93   47   48 2    
    94   47   49 am   BACKBONE|DICT|INTERRES
    95   49   50 1    
    96   49  115 1    
    97   50   51 1    
    98   50   52 1    
    99   50  116 1    
   100   51  117 1    
   101   51  118 1    
   102   51  119 1    
   103   52   53 2    
   104   52   54 am   BACKBONE|DICT|INTERRES
   105   54   55 1    
   106   54  120 1    
   107   55   56 1    
   108   55   57 1    
   109   55  121 1    
   110   56  122 1    
   111   56  123 1    
   112   56  124 1    
   113   57   58 2    
   114   57   59 am   BACKBONE|DICT|INTERRES
   115   59   60 1    
   116   59  125 1    
   117   60   61 1    
   118   60   62 1    
   119   60  126 1    
   120   61  127 1    
   121   61  128 1    
   122   61  129 1    
   123   62   63 2    
   124   62   64 am   BACKBONE|DICT|INTERRES
   125   64   65 1    
   126   64  130 1    
   127   65   66 1    
   128   65   69 1    
   129   65  131 1    
   130   66   67 am   BACKBONE|DICT|INTERRES
   131   66   68 2    
   132   67  132 1    
   133   67  133 1    
   134   69   70 1    
   135   69  134 1    
   136   69  135 1    
   137   70   71 1    
   138   71  136 1    
   139   71  137 1    
@<TRIPOS>SUBSTRUCTURE
     1 UNK         1 GROUP             0       ****    0 ROOT    
