@<TRIPOS>MOLECULE
3R137
137   139    1
SMALL
USER_CHARGES


@<TRIPOS>ATOM
      1 CA         26.1007   -7.0975    1.1551 C.3       0 UNK        -0.2020 
      2 C          26.6310   -5.8493    0.4664 C.2       0 UNK         0.4855 
      3 O          26.8338   -5.8632   -0.7484 O.2       0 UNK        -0.5197 
      4 N          26.8476   -4.7689    1.2313 N.am      1 UNK        -0.4892 
      5 CA         27.3482   -3.4517    0.8076 C.3       1 UNK         0.0835 
      6 C6         28.7321   -3.5250    0.1062 C.3       12 UNK        -0.0855 
      7 S7         29.6444   -1.9438    0.1000 S.3       12 UNK        -0.2931 
      8 C8         29.1851   -1.2200   -1.5094 C.3       12 UNK         0.0378 
      9 C9         29.8844   -1.8907   -2.6848 C.ar      12 UNK        -0.0802 
     10 C10        31.1033   -1.3891   -3.1483 C.ar      12 UNK        -0.0944 
     11 C11        31.7456   -1.9787   -4.2406 C.ar      12 UNK        -0.0787 
     12 C12        31.1727   -3.0986   -4.8541 C.ar      12 UNK        -0.0862 
     13 C13        29.9493   -3.6061   -4.4063 C.ar      12 UNK        -0.0733 
     14 C14        29.3020   -2.9842   -3.3340 C.ar      12 UNK        -0.0832 
     15 C15        29.3494   -4.8493   -5.0531 C.3       12 UNK         0.0240 
     16 S16        28.5386   -4.5074   -6.6492 S.3       12 UNK        -0.2522 
     17 C17        27.0568   -3.5766   -6.1265 C.3       12 UNK        -0.0967 
     18 CA         26.7653   -2.3147   -6.9767 C.3       5 UNK         0.0660 
     19 N          25.5317   -1.6514   -6.5476 N.am      5 UNK        -0.4015 
     20 C          24.8799   -0.7180   -7.2576 C.2       4 UNK         0.4946 
     21 O          25.2161   -0.3526   -8.3827 O.2       4 UNK        -0.5353 
     22 CA         23.6725   -0.0435   -6.5842 C.3       4 UNK         0.0277 
     23 CB         22.4019   -0.8852   -6.7821 C.3       4 UNK        -0.1981 
     24 N          23.8845    0.2025   -5.1562 N.am      4 UNK        -0.4209 
     25 C          24.8218    1.0232   -4.6594 C.2       3 UNK         0.4942 
     26 O          25.5538    1.7229   -5.3577 O.2       3 UNK        -0.5208 
     27 CA         25.0077    1.0296   -3.1313 C.3       3 UNK         0.0250 
     28 CB         24.1709    2.1485   -2.4920 C.3       3 UNK        -0.1990 
     29 N          24.6860   -0.2520   -2.4910 N.am      3 UNK        -0.4232 
     30 C          25.3256   -1.4045   -2.7333 C.2       2 UNK         0.4993 
     31 O          26.2532   -1.5131   -3.5390 O.2       2 UNK        -0.5286 
     32 CA         24.8096   -2.6535   -2.0001 C.3       2 UNK         0.0209 
     33 CB         24.3599   -3.7246   -3.0083 C.3       2 UNK        -0.1931 
     34 N          25.8190   -3.2295   -1.1114 N.am      2 UNK        -0.4546 
     35 C          26.2982   -2.6556   -0.0005 C.2       1 UNK         0.5154 
     36 O          25.9184   -1.5593    0.4138 O.2       1 UNK        -0.5181 
     37 C          27.9337   -1.3102   -7.0026 C.2       5 UNK         0.5014 
     38 O          28.6425   -1.2431   -8.0084 O.2       5 UNK        -0.5248 
     39 N          28.0633   -0.5059   -5.9349 N.am      6 UNK        -0.4434 
     40 CA         29.0544    0.5694   -5.8185 C.3       6 UNK         0.0363 
     41 CB         28.9113    1.2656   -4.4568 C.3       6 UNK        -0.1936 
     42 C          28.9571    1.6040   -6.9523 C.2       6 UNK         0.5081 
     43 O          29.9877    2.0216   -7.4819 O.2       6 UNK        -0.5248 
     44 N          27.7221    1.9800   -7.3113 N.am      7 UNK        -0.4718 
     45 CA         27.4123    2.8659   -8.4310 C.3       7 UNK         0.0273 
     46 CB         25.9466    3.3199   -8.3399 C.3       7 UNK        -0.1935 
     47 C          27.7033    2.2187   -9.7942 C.2       7 UNK         0.5018 
     48 O          28.3602    2.8483  -10.6230 O.2       7 UNK        -0.5186 
     49 N          27.2251    0.9820  -10.0035 N.am      8 UNK        -0.4240 
     50 CA         27.3750    0.2326  -11.2563 C.3       8 UNK         0.0235 
     51 CB         26.5294   -1.0500  -11.2074 C.3       8 UNK        -0.2000 
     52 C          28.8340   -0.0999  -11.6035 C.2       8 UNK         0.4941 
     53 O          29.2303    0.0634  -12.7582 O.2       8 UNK        -0.5273 
     54 N          29.6094   -0.5415  -10.6044 N.am      9 UNK        -0.4262 
     55 CA         31.0395   -0.8294  -10.7434 C.3       9 UNK         0.0264 
     56 CB         31.4485   -1.8483   -9.6685 C.3       9 UNK        -0.1955 
     57 C          31.9230    0.4316  -10.6769 C.2       9 UNK         0.5031 
     58 O          33.1085    0.3422  -10.9985 O.2       9 UNK        -0.5390 
     59 N          31.3456    1.5676  -10.2544 N.am      10 UNK        -0.4204 
     60 CA         31.9633    2.8889  -10.0700 C.3       10 UNK         0.0237 
     61 CB         32.4663    3.4586  -11.4134 C.3       10 UNK        -0.1985 
     62 C          33.0382    2.9386   -8.9635 C.2       10 UNK         0.4970 
     63 O          33.8251    3.8863   -8.9231 O.2       10 UNK        -0.4914 
     64 N          33.0432    1.9365   -8.0788 N.am      11 UNK        -0.4285 
     65 CA         33.9118    1.8318   -6.8996 C.3       11 UNK         0.1007 
     66 C          33.3532    2.5568   -5.6416 C.2       11 UNK         0.5703 
     67 N          32.1008    2.9998   -5.6287 N.am      11 UNK        -0.7361 
     68 O          34.0795    2.7397   -4.6676 O.2       11 UNK        -0.4986 
     69 C69        34.2922    0.3539   -6.6152 C.3       12 UNK        -0.0947 
     70 S70        32.8397   -0.7359   -6.4377 S.3       12 UNK        -0.2240 
     71 C71        33.0519   -1.3967   -4.7594 C.3       12 UNK         0.0194 
     72 H72        26.7923   -7.9270    1.0103 H         1 UNK         0.0906 
     73 H73        25.9688   -6.9494    2.2268 H         1 UNK         0.0906 
     74 H74        25.1376   -7.3791    0.7302 H         1 UNK         0.0906 
     75 H75        26.6268   -4.8307    2.2166 H         1 UNK         0.3140 
     76 H76        27.4913   -2.8994    1.7384 H         1 UNK         0.1085 
     77 H77        29.3636   -4.2345    0.6432 H         1 UNK         0.0836 
     78 H78        28.6502   -3.9318   -0.8985 H         1 UNK         0.0836 
     79 H79        28.1059   -1.2503   -1.6447 H         1 UNK         0.0731 
     80 H80        29.4468   -0.1614   -1.4835 H         1 UNK         0.0731 
     81 H81        31.5452   -0.5290   -2.6642 H         1 UNK         0.1312 
     82 H82        31.6726   -3.5649   -5.6921 H         1 UNK         0.1406 
     83 H83        28.3430   -3.3555   -3.0012 H         1 UNK         0.1631 
     84 H84        30.1408   -5.5821   -5.2171 H         1 UNK         0.0717 
     85 H85        28.6340   -5.3266   -4.3812 H         1 UNK         0.0717 
     86 H86        26.2067   -4.2583   -6.1815 H         1 UNK         0.0934 
     87 H87        27.1507   -3.3104   -5.0759 H         1 UNK         0.0934 
     88 H88        26.6095   -2.6467   -8.0056 H         1 UNK         0.0739 
     89 H89        25.2363   -1.8320   -5.5987 H         1 UNK         0.3093 
     90 H90        23.5222    0.9230   -7.0703 H         1 UNK         0.0818 
     91 H91        21.5233   -0.3770   -6.3843 H         1 UNK         0.0819 
     92 H92        22.2165   -1.0652   -7.8422 H         1 UNK         0.0819 
     93 H93        22.4775   -1.8582   -6.2951 H         1 UNK         0.0819 
     94 H94        23.3103   -0.3168   -4.5086 H         1 UNK         0.3041 
     95 H95        26.0616    1.2370   -2.9349 H         1 UNK         0.0784 
     96 H96        24.4106    3.1161   -2.9358 H         1 UNK         0.0793 
     97 H97        23.1013    1.9835   -2.6284 H         1 UNK         0.0793 
     98 H98        24.3660    2.2285   -1.4224 H         1 UNK         0.0793 
     99 H99        23.9450   -0.2389   -1.8045 H         1 UNK         0.3024 
    100 H100       23.9464   -2.3768   -1.3907 H         1 UNK         0.1171 
    101 H101       23.9178   -4.5827   -2.5014 H         1 UNK         0.0786 
    102 H102       23.6072   -3.3310   -3.6926 H         1 UNK         0.0786 
    103 H103       25.1932   -4.0886   -3.6105 H         1 UNK         0.0786 
    104 H104       26.1636   -4.1595   -1.3341 H         1 UNK         0.2977 
    105 H105       27.4460   -0.6514   -5.1439 H         1 UNK         0.3127 
    106 H106       30.0391    0.1020   -5.8669 H         1 UNK         0.0770 
    107 H107       28.0229    1.8950   -4.4098 H         1 UNK         0.0814 
    108 H108       29.7718    1.9043   -4.2572 H         1 UNK         0.0814 
    109 H109       28.8449    0.5452   -3.6463 H         1 UNK         0.0814 
    110 H110       26.9362    1.6438   -6.7615 H         1 UNK         0.2983 
    111 H111       28.0472    3.7504   -8.3427 H         1 UNK         0.0947 
    112 H112       25.6951    3.9967   -9.1575 H         1 UNK         0.0806 
    113 H113       25.7552    3.8513   -7.4074 H         1 UNK         0.0806 
    114 H114       25.2571    2.4764   -8.3883 H         1 UNK         0.0806 
    115 H115       26.6667    0.5391   -9.2771 H         1 UNK         0.3000 
    116 H116       26.9850    0.8615  -12.0595 H         1 UNK         0.0850 
    117 H117       26.6305   -1.6227  -12.1303 H         1 UNK         0.0810 
    118 H118       25.4708   -0.8214  -11.0836 H         1 UNK         0.0810 
    119 H119       26.8300   -1.6988  -10.3839 H         1 UNK         0.0810 
    120 H120       29.1995   -0.6911   -9.6817 H         1 UNK         0.3040 
    121 H121       31.2140   -1.2882  -11.7190 H         1 UNK         0.0766 
    122 H122       30.9241   -2.7946   -9.8016 H         1 UNK         0.0812 
    123 H123       31.2190   -1.4844   -8.6681 H         1 UNK         0.0812 
    124 H124       32.5179   -2.0600   -9.7053 H         1 UNK         0.0812 
    125 H125       30.3676    1.5218   -9.9986 H         1 UNK         0.3205 
    126 H126       31.1579    3.5377   -9.7226 H         1 UNK         0.0754 
    127 H127       32.7753    4.4992  -11.3076 H         1 UNK         0.0769 
    128 H128       31.6835    3.4311  -12.1717 H         1 UNK         0.0769 
    129 H129       33.3236    2.9030  -11.7943 H         1 UNK         0.0769 
    130 H130       32.3243    1.2311   -8.1517 H         1 UNK         0.2981 
    131 H131       34.8455    2.3476   -7.1311 H         1 UNK         0.0541 
    132 H132       31.4789    2.8066   -6.4060 H         1 UNK         0.3459 
    133 H133       31.7609    3.4865   -4.8158 H         1 UNK         0.3459 
    134 H134       34.9341    0.2783   -5.7359 H         1 UNK         0.0612 
    135 H135       34.8871   -0.0305   -7.4450 H         1 UNK         0.0612 
    136 H136       33.4034   -0.6010   -4.1006 H         1 UNK         0.0624 
    137 H137       33.8244   -2.1666   -4.7664 H         1 UNK         0.0624 
@<TRIPOS>BOND
     1    1    2 1    
     2    1   72 1    
     3    1   73 1    
     4    1   74 1    
     5    2    3 2    
     6    2    4 am   BACKBONE|DICT|INTERRES
     7    4    5 1    
     8    4   75 1    
     9    5    6 1    
    10    5   35 1    
    11    5   76 1    
    12    6    7 1    
    13    6   77 1    
    14    6   78 1    
    15    7    8 1    
    16    8    9 1    
    17    8   79 1    
    18    8   80 1    
    19    9   10 ar   
    20    9   14 ar   
    21   10   11 ar   
    22   10   81 1    
    23   11   12 ar   
    24   11   71 1    
    25   12   13 ar   
    26   12   82 1    
    27   13   14 ar   
    28   13   15 1    
    29   14   83 1    
    30   15   16 1    
    31   15   84 1    
    32   15   85 1    
    33   16   17 1    
    34   17   18 1    
    35   17   86 1    
    36   17   87 1    
    37   18   19 1    
    38   18   37 1    
    39   18   88 1    
    40   19   20 am   BACKBONE|DICT|INTERRES
    41   19   89 1    
    42   20   21 2    
    43   20   22 1    
    44   22   23 1    
    45   22   24 1    
    46   22   90 1    
    47   23   91 1    
    48   23   92 1    
    49   23   93 1    
    50   24   25 am   BACKBONE|DICT|INTERRES
    51   24   94 1    
    52   25   26 2    
    53   25   27 1    
    54   27   28 1    
    55   27   29 1    
    56   27   95 1    
    57   28   96 1    
    58   28   97 1    
    59   28   98 1    
    60   29   30 am   BACKBONE|DICT|INTERRES
    61   29   99 1    
    62   30   31 2    
    63   30   32 1    
    64   32   33 1    
    65   32   34 1    
    66   32  100 1    
    67   33  101 1    
    68   33  102 1    
    69   33  103 1    
    70   34   35 am   BACKBONE|DICT|INTERRES
    71   34  104 1    
    72   35   36 2    
    73   37   38 2    
    74   37   39 am   BACKBONE|DICT|INTERRES
    75   39   40 1    
    76   39  105 1    
    77   40   41 1    
    78   40   42 1    
    79   40  106 1    
    80   41  107 1    
    81   41  108 1    
    82   41  109 1    
    83   42   43 2    
    84   42   44 am   BACKBONE|DICT|INTERRES
    85   44   45 1    
    86   44  110 1    
    87   45   46 1    
    88   45   47 1    
    89   45  111 1    
    90   46  112 1    
    91   46  113 1    
    92   46  114 1    
    93   47   48 2    
    94   47   49 am   BACKBONE|DICT|INTERRES
    95   49   50 1    
    96   49  115 1    
    97   50   51 1    
    98   50   52 1    
    99   50  116 1    
   100   51  117 1    
   101   51  118 1    
   102   51  119 1    
   103   52   53 2    
   104   52   54 am   BACKBONE|DICT|INTERRES
   105   54   55 1    
   106   54  120 1    
   107   55   56 1    
   108   55   57 1    
   109   55  121 1    
   110   56  122 1    
   111   56  123 1    
   112   56  124 1    
   113   57   58 2    
   114   57   59 am   BACKBONE|DICT|INTERRES
   115   59   60 1    
   116   59  125 1    
   117   60   61 1    
   118   60   62 1    
   119   60  126 1    
   120   61  127 1    
   121   61  128 1    
   122   61  129 1    
   123   62   63 2    
   124   62   64 am   BACKBONE|DICT|INTERRES
   125   64   65 1    
   126   64  130 1    
   127   65   66 1    
   128   65   69 1    
   129   65  131 1    
   130   66   67 am   BACKBONE|DICT|INTERRES
   131   66   68 2    
   132   67  132 1    
   133   67  133 1    
   134   69   70 1    
   135   69  134 1    
   136   69  135 1    
   137   70   71 1    
   138   71  136 1    
   139   71  137 1    
@<TRIPOS>SUBSTRUCTURE
     1 UNK         1 GROUP             0       ****    0 ROOT    
