@<TRIPOS>MOLECULE
3R137
137   139    1
SMALL
USER_CHARGES


@<TRIPOS>ATOM
      1 CA         30.5149   -0.2342   -0.6318 C.3       0 UNK        -0.2020 
      2 C          29.6911   -1.0852   -1.5860 C.2       0 UNK         0.4855 
      3 O          29.5362   -0.7193   -2.7499 O.2       0 UNK        -0.5197 
      4 N          29.1551   -2.2117   -1.0960 N.am      1 UNK        -0.4892 
      5 CA         28.3566   -3.1701   -1.8746 C.3       1 UNK         0.0835 
      6 C6         28.1787   -4.5301   -1.1451 C.3       12 UNK        -0.0855 
      7 S7         29.7033   -5.2208   -0.4158 S.3       12 UNK        -0.2931 
      8 C8         30.3680   -6.2133   -1.7892 C.3       12 UNK         0.0378 
      9 C9         31.0060   -5.3317   -2.8514 C.ar      12 UNK        -0.0802 
     10 C10        32.1844   -4.6375   -2.5598 C.ar      12 UNK        -0.0944 
     11 C11        32.7784   -3.8145   -3.5188 C.ar      12 UNK        -0.0787 
     12 C12        32.1928   -3.6992   -4.7817 C.ar      12 UNK        -0.0862 
     13 C13        31.0100   -4.3813   -5.0839 C.ar      12 UNK        -0.0733 
     14 C14        30.4231   -5.2034   -4.1168 C.ar      12 UNK        -0.0832 
     15 C15        30.3819   -4.2324   -6.4616 C.3       12 UNK         0.0240 
     16 S16        29.9160   -2.5071   -6.8051 S.3       12 UNK        -0.2522 
     17 C17        28.3373   -2.3207   -5.9038 C.3       12 UNK        -0.0967 
     18 CA         27.2630   -1.6691   -6.8084 C.3       5 UNK         0.0660 
     19 N          25.8981   -1.8911   -6.3323 N.am      5 UNK        -0.4015 
     20 C          24.8455   -2.0081   -7.1580 C.2       4 UNK         0.4946 
     21 O          24.9326   -2.0372   -8.3876 O.2       4 UNK        -0.5353 
     22 CA         23.4500   -2.0815   -6.5161 C.3       4 UNK         0.0277 
     23 CB         23.1615   -3.5045   -6.0105 C.3       4 UNK        -0.1981 
     24 N          23.2563   -1.1270   -5.4242 N.am      4 UNK        -0.4209 
     25 C          23.4000    0.2043   -5.5112 C.2       3 UNK         0.4942 
     26 O          23.6945    0.8042   -6.5436 O.2       3 UNK        -0.5208 
     27 CA         23.2373    0.9999   -4.2046 C.3       3 UNK         0.0250 
     28 CB         21.7743    1.4320   -4.0176 C.3       3 UNK        -0.1990 
     29 N          23.6904    0.2718   -3.0136 N.am      3 UNK        -0.4232 
     30 C          24.9193   -0.2368   -2.8386 C.2       2 UNK         0.4993 
     31 O          25.8293   -0.1073   -3.6622 O.2       2 UNK        -0.5286 
     32 CA         25.1432   -1.0257   -1.5340 C.3       2 UNK         0.0209 
     33 CB         24.0280   -2.0671   -1.2845 C.3       2 UNK        -0.1931 
     34 N          26.4587   -1.6731   -1.4574 N.am      2 UNK        -0.4546 
     35 C          26.9658   -2.6226   -2.2612 C.2       1 UNK         0.5154 
     36 O          26.3801   -3.0949   -3.2385 O.2       1 UNK        -0.5181 
     37 C          27.5303   -0.1676   -7.0146 C.2       5 UNK         0.5014 
     38 O          28.1099    0.1966   -8.0402 O.2       5 UNK        -0.5248 
     39 N          27.1304    0.6798   -6.0536 N.am      6 UNK        -0.4434 
     40 CA         27.4653    2.1076   -6.0259 C.3       6 UNK         0.0363 
     41 CB         27.0273    2.7307   -4.6929 C.3       6 UNK        -0.1936 
     42 C          26.9247    2.9177   -7.2150 C.2       6 UNK         0.5081 
     43 O          27.6228    3.8132   -7.6909 O.2       6 UNK        -0.5248 
     44 N          25.7180    2.5855   -7.6951 N.am      7 UNK        -0.4718 
     45 CA         25.1312    3.1991   -8.8906 C.3       7 UNK         0.0273 
     46 CB         23.6088    2.9860   -8.8848 C.3       7 UNK        -0.1935 
     47 C          25.7402    2.6621  -10.1981 C.2       7 UNK         0.5018 
     48 O          25.6686    3.3522  -11.2159 O.2       7 UNK        -0.5186 
     49 N          26.3064    1.4478  -10.1594 N.am      8 UNK        -0.4240 
     50 CA         26.9272    0.7899  -11.3073 C.3       8 UNK         0.0235 
     51 CB         26.8533   -0.7375  -11.1393 C.3       8 UNK        -0.2000 
     52 C          28.3754    1.2536  -11.5165 C.2       8 UNK         0.4941 
     53 O          28.7272    1.6214  -12.6385 O.2       8 UNK        -0.5273 
     54 N          29.1868    1.2232  -10.4495 N.am      9 UNK        -0.4262 
     55 CA         30.6166    1.5526  -10.4964 C.3       9 UNK         0.0264 
     56 CB         31.4015    0.4317  -11.2103 C.3       9 UNK        -0.1955 
     57 C          31.2516    1.8260   -9.1230 C.2       9 UNK         0.5031 
     58 O          32.2442    2.5552   -9.0802 O.2       9 UNK        -0.5390 
     59 N          30.7130    1.2303   -8.0469 N.am      10 UNK        -0.4204 
     60 CA         31.2815    1.1604   -6.6919 C.3       10 UNK         0.0237 
     61 CB         31.4566    2.5707   -6.0805 C.3       10 UNK        -0.1985 
     62 C          32.5814    0.3270   -6.6416 C.2       10 UNK         0.4970 
     63 O          32.9323   -0.3448   -7.6157 O.2       10 UNK        -0.4914 
     64 N          33.2604    0.3540   -5.4888 N.am      11 UNK        -0.4285 
     65 CA         34.5553   -0.3085   -5.2754 C.3       11 UNK         0.1007 
     66 C          35.7045    0.3824   -6.0585 C.2       11 UNK         0.5703 
     67 N          36.6641   -0.3837   -6.5594 N.am      11 UNK        -0.7361 
     68 O          35.7568    1.6055   -6.1762 O.2       11 UNK        -0.4986 
     69 C69        34.9103   -0.4203   -3.7693 C.3       12 UNK        -0.0947 
     70 S70        33.6416   -1.3044   -2.8048 S.3       12 UNK        -0.2240 
     71 C71        34.0419   -3.0368   -3.1916 C.3       12 UNK         0.0194 
     72 H72        30.0150    0.7184   -0.4530 H         1 UNK         0.0906 
     73 H73        31.4946   -0.0280   -1.0637 H         1 UNK         0.0906 
     74 H74        30.6665   -0.7278    0.3293 H         1 UNK         0.0906 
     75 H75        29.3451   -2.4840   -0.1414 H         1 UNK         0.3140 
     76 H76        28.8904   -3.3455   -2.8097 H         1 UNK         0.1085 
     77 H77        27.7440   -5.2675   -1.8228 H         1 UNK         0.0836 
     78 H78        27.4643   -4.4272   -0.3254 H         1 UNK         0.0836 
     79 H79        31.1223   -6.8965   -1.3961 H         1 UNK         0.0731 
     80 H80        29.5801   -6.8391   -2.2110 H         1 UNK         0.0731 
     81 H81        32.6286   -4.7270   -1.5777 H         1 UNK         0.1312 
     82 H82        32.6446   -3.0574   -5.5261 H         1 UNK         0.1406 
     83 H83        29.5100   -5.7364   -4.3456 H         1 UNK         0.1631 
     84 H84        29.5129   -4.8813   -6.5802 H         1 UNK         0.0717 
     85 H85        31.1069   -4.5520   -7.2113 H         1 UNK         0.0717 
     86 H86        27.9990   -3.3052   -5.5771 H         1 UNK         0.0934 
     87 H87        28.5028   -1.7433   -4.9924 H         1 UNK         0.0934 
     88 H88        27.3519   -2.1415   -7.7897 H         1 UNK         0.0739 
     89 H89        25.7512   -1.8613   -5.3290 H         1 UNK         0.3093 
     90 H90        22.7202   -1.8382   -7.2912 H         1 UNK         0.0818 
     91 H91        23.2859   -4.2351   -6.8112 H         1 UNK         0.0819 
     92 H92        23.8342   -3.7911   -5.2005 H         1 UNK         0.0819 
     93 H93        22.1381   -3.5975   -5.6466 H         1 UNK         0.0819 
     94 H94        23.0196   -1.5149   -4.5232 H         1 UNK         0.3041 
     95 H95        23.8448    1.9009   -4.2918 H         1 UNK         0.0784 
     96 H96        21.4215    1.9958   -4.8828 H         1 UNK         0.0793 
     97 H97        21.1105    0.5752   -3.8944 H         1 UNK         0.0793 
     98 H98        21.6581    2.0763   -3.1458 H         1 UNK         0.0793 
     99 H99        23.0047    0.1369   -2.2845 H         1 UNK         0.3024 
    100 H100       25.1162   -0.2946   -0.7241 H         1 UNK         0.1171 
    101 H101       23.0590   -1.5927   -1.1268 H         1 UNK         0.0786 
    102 H102       23.9218   -2.7579   -2.1222 H         1 UNK         0.0786 
    103 H103       24.2348   -2.6595   -0.3928 H         1 UNK         0.0786 
    104 H104       27.0632   -1.3428   -0.7185 H         1 UNK         0.2977 
    105 H105       26.6570    0.3151   -5.2266 H         1 UNK         0.3127 
    106 H106       28.5519    2.1704   -6.0706 H         1 UNK         0.0770 
    107 H107       25.9458    2.7045   -4.5731 H         1 UNK         0.0814 
    108 H108       27.3368    3.7747   -4.6301 H         1 UNK         0.0814 
    109 H109       27.4728    2.2086   -3.8457 H         1 UNK         0.0814 
    110 H110       25.1733    1.8563   -7.2392 H         1 UNK         0.2983 
    111 H111       25.3202    4.2747   -8.8582 H         1 UNK         0.0947 
    112 H112       23.3496    1.9296   -8.9690 H         1 UNK         0.0806 
    113 H113       23.1392    3.5035   -9.7226 H         1 UNK         0.0806 
    114 H114       23.1565    3.3704   -7.9703 H         1 UNK         0.0806 
    115 H115       26.3724    0.9737   -9.2685 H         1 UNK         0.3000 
    116 H116       26.3625    1.0478  -12.2063 H         1 UNK         0.0850 
    117 H117       27.2804   -1.2445  -12.0056 H         1 UNK         0.0810 
    118 H118       25.8210   -1.0750  -11.0425 H         1 UNK         0.0810 
    119 H119       27.3975   -1.0833  -10.2603 H         1 UNK         0.0810 
    120 H120       28.7959    0.9264   -9.5579 H         1 UNK         0.3040 
    121 H121       30.7277    2.4728  -11.0741 H         1 UNK         0.0766 
    122 H122       31.2710   -0.5276  -10.7081 H         1 UNK         0.0812 
    123 H123       32.4706    0.6483  -11.2233 H         1 UNK         0.0812 
    124 H124       31.0889    0.3133  -12.2475 H         1 UNK         0.0812 
    125 H125       29.8861    0.6535   -8.1746 H         1 UNK         0.3205 
    126 H126       30.5470    0.6210   -6.0917 H         1 UNK         0.0754 
    127 H127       31.5507    2.5226   -4.9954 H         1 UNK         0.0769 
    128 H128       30.6053    3.2148   -6.2993 H         1 UNK         0.0769 
    129 H129       32.3484    3.0690   -6.4633 H         1 UNK         0.0769 
    130 H130       32.9216    0.9205   -4.7263 H         1 UNK         0.2981 
    131 H131       34.4608   -1.3224   -5.6684 H         1 UNK         0.0541 
    132 H132       37.4260    0.0503   -7.0566 H         1 UNK         0.3459 
    133 H133       36.6389   -1.3865   -6.4599 H         1 UNK         0.3459 
    134 H134       35.0311    0.5729   -3.3329 H         1 UNK         0.0612 
    135 H135       35.8659   -0.9301   -3.6317 H         1 UNK         0.0612 
    136 H136       34.7297   -3.0962   -4.0359 H         1 UNK         0.0624 
    137 H137       34.5623   -3.4801   -2.3414 H         1 UNK         0.0624 
@<TRIPOS>BOND
     1    1    2 1    
     2    1   72 1    
     3    1   73 1    
     4    1   74 1    
     5    2    3 2    
     6    2    4 am   BACKBONE|DICT|INTERRES
     7    4    5 1    
     8    4   75 1    
     9    5    6 1    
    10    5   35 1    
    11    5   76 1    
    12    6    7 1    
    13    6   77 1    
    14    6   78 1    
    15    7    8 1    
    16    8    9 1    
    17    8   79 1    
    18    8   80 1    
    19    9   10 ar   
    20    9   14 ar   
    21   10   11 ar   
    22   10   81 1    
    23   11   12 ar   
    24   11   71 1    
    25   12   13 ar   
    26   12   82 1    
    27   13   14 ar   
    28   13   15 1    
    29   14   83 1    
    30   15   16 1    
    31   15   84 1    
    32   15   85 1    
    33   16   17 1    
    34   17   18 1    
    35   17   86 1    
    36   17   87 1    
    37   18   19 1    
    38   18   37 1    
    39   18   88 1    
    40   19   20 am   BACKBONE|DICT|INTERRES
    41   19   89 1    
    42   20   21 2    
    43   20   22 1    
    44   22   23 1    
    45   22   24 1    
    46   22   90 1    
    47   23   91 1    
    48   23   92 1    
    49   23   93 1    
    50   24   25 am   BACKBONE|DICT|INTERRES
    51   24   94 1    
    52   25   26 2    
    53   25   27 1    
    54   27   28 1    
    55   27   29 1    
    56   27   95 1    
    57   28   96 1    
    58   28   97 1    
    59   28   98 1    
    60   29   30 am   BACKBONE|DICT|INTERRES
    61   29   99 1    
    62   30   31 2    
    63   30   32 1    
    64   32   33 1    
    65   32   34 1    
    66   32  100 1    
    67   33  101 1    
    68   33  102 1    
    69   33  103 1    
    70   34   35 am   BACKBONE|DICT|INTERRES
    71   34  104 1    
    72   35   36 2    
    73   37   38 2    
    74   37   39 am   BACKBONE|DICT|INTERRES
    75   39   40 1    
    76   39  105 1    
    77   40   41 1    
    78   40   42 1    
    79   40  106 1    
    80   41  107 1    
    81   41  108 1    
    82   41  109 1    
    83   42   43 2    
    84   42   44 am   BACKBONE|DICT|INTERRES
    85   44   45 1    
    86   44  110 1    
    87   45   46 1    
    88   45   47 1    
    89   45  111 1    
    90   46  112 1    
    91   46  113 1    
    92   46  114 1    
    93   47   48 2    
    94   47   49 am   BACKBONE|DICT|INTERRES
    95   49   50 1    
    96   49  115 1    
    97   50   51 1    
    98   50   52 1    
    99   50  116 1    
   100   51  117 1    
   101   51  118 1    
   102   51  119 1    
   103   52   53 2    
   104   52   54 am   BACKBONE|DICT|INTERRES
   105   54   55 1    
   106   54  120 1    
   107   55   56 1    
   108   55   57 1    
   109   55  121 1    
   110   56  122 1    
   111   56  123 1    
   112   56  124 1    
   113   57   58 2    
   114   57   59 am   BACKBONE|DICT|INTERRES
   115   59   60 1    
   116   59  125 1    
   117   60   61 1    
   118   60   62 1    
   119   60  126 1    
   120   61  127 1    
   121   61  128 1    
   122   61  129 1    
   123   62   63 2    
   124   62   64 am   BACKBONE|DICT|INTERRES
   125   64   65 1    
   126   64  130 1    
   127   65   66 1    
   128   65   69 1    
   129   65  131 1    
   130   66   67 am   BACKBONE|DICT|INTERRES
   131   66   68 2    
   132   67  132 1    
   133   67  133 1    
   134   69   70 1    
   135   69  134 1    
   136   69  135 1    
   137   70   71 1    
   138   71  136 1    
   139   71  137 1    
@<TRIPOS>SUBSTRUCTURE
     1 UNK         1 GROUP             0       ****    0 ROOT    
