@<TRIPOS>MOLECULE
3R137
137   139    1
SMALL
USER_CHARGES


@<TRIPOS>ATOM
      1 CA         24.0141   -5.9740   -3.2171 C.3       0 UNK        -0.2020 
      2 C          24.5907   -4.9830   -2.2180 C.2       0 UNK         0.4855 
      3 O          23.8442   -4.2019   -1.6270 O.2       0 UNK        -0.5197 
      4 N          25.9165   -5.0134   -2.0344 N.am      1 UNK        -0.4892 
      5 CA         26.7178   -4.1534   -1.1544 C.3       1 UNK         0.0835 
      6 C6         28.2255   -4.5471   -1.1657 C.3       12 UNK        -0.0855 
      7 S7         28.8716   -5.1401   -2.7770 S.3       12 UNK        -0.2931 
      8 C8         30.5747   -4.4988   -2.7889 C.3       12 UNK         0.0378 
      9 C9         30.6622   -3.1366   -3.4600 C.ar      12 UNK        -0.0802 
     10 C10        30.8784   -3.0441   -4.8380 C.ar      12 UNK        -0.0944 
     11 C11        30.9909   -1.7959   -5.4610 C.ar      12 UNK        -0.0787 
     12 C12        30.8629   -0.6332   -4.6947 C.ar      12 UNK        -0.0862 
     13 C13        30.6307   -0.7132   -3.3184 C.ar      12 UNK        -0.0733 
     14 C14        30.5441   -1.9676   -2.7063 C.ar      12 UNK        -0.0832 
     15 C15        30.4829    0.5464   -2.4785 C.3       12 UNK         0.0240 
     16 S16        28.8340    0.6362   -1.7140 S.3       12 UNK        -0.2522 
     17 C17        27.9351    1.8060   -2.7824 C.3       12 UNK        -0.0967 
     18 CA         27.7909    1.4152   -4.2778 C.3       5 UNK         0.0660 
     19 N          27.3019    0.0484   -4.5082 N.am      5 UNK        -0.4015 
     20 C          27.1945   -0.5176   -5.7232 C.2       4 UNK         0.4946 
     21 O          27.5943    0.0090   -6.7613 O.2       4 UNK        -0.5353 
     22 CA         26.4529   -1.8590   -5.8236 C.3       4 UNK         0.0277 
     23 CB         27.4043   -3.0435   -5.6020 C.3       4 UNK        -0.1981 
     24 N          25.3278   -1.9199   -4.8898 N.am      4 UNK        -0.4209 
     25 C          24.1754   -1.2554   -5.0690 C.2       3 UNK         0.4942 
     26 O          23.9225   -0.5934   -6.0747 O.2       3 UNK        -0.5208 
     27 CA         23.1485   -1.2889   -3.9234 C.3       3 UNK         0.0250 
     28 CB         22.1715   -2.4609   -4.0981 C.3       3 UNK        -0.1990 
     29 N          23.7788   -1.3510   -2.6026 N.am      3 UNK        -0.4232 
     30 C          24.4896   -0.3424   -2.0750 C.2       2 UNK         0.4993 
     31 O          24.6146    0.7550   -2.6186 O.2       2 UNK        -0.5286 
     32 CA         25.2341   -0.6113   -0.7548 C.3       2 UNK         0.0209 
     33 CB         24.3610   -0.2109    0.4445 C.3       2 UNK        -0.1931 
     34 N          25.6786   -2.0003   -0.5942 N.am      2 UNK        -0.4546 
     35 C          26.4829   -2.6561   -1.4443 C.2       1 UNK         0.5154 
     36 O          26.9626   -2.1402   -2.4530 O.2       1 UNK        -0.5181 
     37 C          26.9065    2.4605   -4.9902 C.2       5 UNK         0.5014 
     38 O          27.4387    3.3615   -5.6395 O.2       5 UNK        -0.5248 
     39 N          25.5788    2.3159   -4.8536 N.am      6 UNK        -0.4434 
     40 CA         24.5721    3.1738   -5.4818 C.3       6 UNK         0.0363 
     41 CB         23.1840    2.8496   -4.9069 C.3       6 UNK        -0.1936 
     42 C          24.5627    3.0733   -7.0164 C.2       6 UNK         0.5081 
     43 O          24.4577    4.1037   -7.6827 O.2       6 UNK        -0.5248 
     44 N          24.6767    1.8482   -7.5508 N.am      7 UNK        -0.4718 
     45 CA         24.7832    1.5831   -8.9894 C.3       7 UNK         0.0273 
     46 CB         24.6201    0.0773   -9.2515 C.3       7 UNK        -0.1935 
     47 C          26.1018    2.0984   -9.5930 C.2       7 UNK         0.5018 
     48 O          26.0748    2.6735  -10.6822 O.2       7 UNK        -0.5186 
     49 N          27.2009    1.8990   -8.8500 N.am      8 UNK        -0.4240 
     50 CA         28.5978    2.2370   -9.1353 C.3       8 UNK         0.0235 
     51 CB         28.7755    3.7317   -9.4693 C.3       8 UNK        -0.2000 
     52 C          29.2333    1.3345  -10.2070 C.2       8 UNK         0.4941 
     53 O          28.5832    0.9389  -11.1769 O.2       8 UNK        -0.5273 
     54 N          30.5231    1.0493  -10.0142 N.am      9 UNK        -0.4262 
     55 CA         31.3964    0.2699  -10.8858 C.3       9 UNK         0.0264 
     56 CB         31.0083   -1.2228  -10.8611 C.3       9 UNK        -0.1955 
     57 C          32.8330    0.4812  -10.3923 C.2       9 UNK         0.5031 
     58 O          33.0296    1.0312   -9.3025 O.2       9 UNK        -0.5390 
     59 N          33.8163    0.0264  -11.1788 N.am      10 UNK        -0.4204 
     60 CA         35.2525    0.1132  -10.8845 C.3       10 UNK         0.0237 
     61 CB         36.0395   -0.0338  -12.2011 C.3       10 UNK        -0.1985 
     62 C          35.7082   -0.8927   -9.8036 C.2       10 UNK         0.4970 
     63 O          36.6304   -1.6767  -10.0361 O.2       10 UNK        -0.4914 
     64 N          35.0439   -0.8565   -8.6445 N.am      11 UNK        -0.4285 
     65 CA         35.3082   -1.7091   -7.4759 C.3       11 UNK         0.1007 
     66 C          36.5247   -1.2579   -6.6160 C.2       11 UNK         0.5703 
     67 N          37.1110   -0.0887   -6.8473 N.am      11 UNK        -0.7361 
     68 O          36.9539   -1.9908   -5.7280 O.2       11 UNK        -0.4986 
     69 C69        34.0375   -1.8814   -6.6032 C.3       12 UNK        -0.0947 
     70 S70        32.6698   -2.6747   -7.5148 S.3       12 UNK        -0.2240 
     71 C71        31.2323   -1.6971   -6.9629 C.3       12 UNK         0.0194 
     72 H72        23.8978   -5.5044   -4.1931 H         1 UNK         0.0906 
     73 H73        24.6576   -6.8461   -3.3326 H         1 UNK         0.0906 
     74 H74        23.0359   -6.3213   -2.8850 H         1 UNK         0.0906 
     75 H75        26.4742   -5.6495   -2.5886 H         1 UNK         0.3140 
     76 H76        26.3565   -4.3368   -0.1402 H         1 UNK         0.1085 
     77 H77        28.3791   -5.3613   -0.4558 H         1 UNK         0.0836 
     78 H78        28.8444   -3.7286   -0.7938 H         1 UNK         0.0836 
     79 H79        31.2075   -5.2083   -3.3242 H         1 UNK         0.0731 
     80 H80        30.9690   -4.4553   -1.7725 H         1 UNK         0.0731 
     81 H81        30.9661   -3.9464   -5.4275 H         1 UNK         0.1312 
     82 H82        30.9390    0.3340   -5.1716 H         1 UNK         0.1406 
     83 H83        30.3690   -2.0291   -1.6413 H         1 UNK         0.1631 
     84 H84        30.6760    1.4454   -3.0656 H         1 UNK         0.0717 
     85 H85        31.2339    0.5304   -1.6876 H         1 UNK         0.0717 
     86 H86        26.9534    1.9474   -2.3275 H         1 UNK         0.0934 
     87 H87        28.4338    2.7739   -2.7003 H         1 UNK         0.0934 
     88 H88        28.7794    1.4730   -4.7358 H         1 UNK         0.0739 
     89 H89        27.0406   -0.4939   -3.6910 H         1 UNK         0.3093 
     90 H90        26.0549   -1.9442   -6.8369 H         1 UNK         0.0818 
     91 H91        26.8753   -3.9959   -5.6287 H         1 UNK         0.0819 
     92 H92        28.1690   -3.0729   -6.3787 H         1 UNK         0.0819 
     93 H93        27.9242   -2.9741   -4.6476 H         1 UNK         0.0819 
     94 H94        25.5126   -2.3594   -3.9967 H         1 UNK         0.3041 
     95 H95        22.5708   -0.3635   -3.9730 H         1 UNK         0.0784 
     96 H96        21.6428   -2.3864   -5.0495 H         1 UNK         0.0793 
     97 H97        22.6843   -3.4213   -4.0869 H         1 UNK         0.0793 
     98 H98        21.4195   -2.4728   -3.3090 H         1 UNK         0.0793 
     99 H99        23.7402   -2.2395   -2.1101 H         1 UNK         0.3024 
    100 H100       26.1242    0.0196   -0.7544 H         1 UNK         0.1171 
    101 H101       24.9098   -0.2987    1.3824 H         1 UNK         0.0786 
    102 H102       24.0339    0.8265    0.3591 H         1 UNK         0.0786 
    103 H103       23.4661   -0.8303    0.5176 H         1 UNK         0.0786 
    104 H104       25.2776   -2.5109    0.1797 H         1 UNK         0.2977 
    105 H105       25.2318    1.5935   -4.2263 H         1 UNK         0.3127 
    106 H106       24.8130    4.2064   -5.2205 H         1 UNK         0.0770 
    107 H107       22.8843    1.8253   -5.1290 H         1 UNK         0.0814 
    108 H108       22.4244    3.5099   -5.3273 H         1 UNK         0.0814 
    109 H109       23.1624    2.9772   -3.8244 H         1 UNK         0.0814 
    110 H110       24.6748    1.0403   -6.9345 H         1 UNK         0.2983 
    111 H111       23.9640    2.1056   -9.4883 H         1 UNK         0.0947 
    112 H112       25.3989   -0.5042   -8.7570 H         1 UNK         0.0806 
    113 H113       24.6769   -0.1414  -10.3187 H         1 UNK         0.0806 
    114 H114       23.6554   -0.2852   -8.8960 H         1 UNK         0.0806 
    115 H115       27.0887    1.3473   -8.0021 H         1 UNK         0.3000 
    116 H116       29.1202    2.0473   -8.1957 H         1 UNK         0.0850 
    117 H117       28.3201    4.3635   -8.7062 H         1 UNK         0.0810 
    118 H118       28.3324    3.9913  -10.4310 H         1 UNK         0.0810 
    119 H119       29.8324    3.9953   -9.5213 H         1 UNK         0.0810 
    120 H120       31.0190    1.4400   -9.2201 H         1 UNK         0.3040 
    121 H121       31.3181    0.6589  -11.9030 H         1 UNK         0.0766 
    122 H122       31.6752   -1.8190  -11.4846 H         1 UNK         0.0812 
    123 H123       29.9981   -1.3812  -11.2380 H         1 UNK         0.0812 
    124 H124       31.0529   -1.6329   -9.8534 H         1 UNK         0.0812 
    125 H125       33.5665   -0.4417  -12.0384 H         1 UNK         0.3205 
    126 H126       35.4597    1.1105  -10.4902 H         1 UNK         0.0754 
    127 H127       37.1112    0.0818  -12.0325 H         1 UNK         0.0769 
    128 H128       35.7465    0.7261  -12.9260 H         1 UNK         0.0769 
    129 H129       35.8843   -1.0121  -12.6580 H         1 UNK         0.0769 
    130 H130       34.2893   -0.1819   -8.5556 H         1 UNK         0.2981 
    131 H131       35.5750   -2.6994   -7.8500 H         1 UNK         0.0541 
    132 H132       37.9016    0.1867   -6.2862 H         1 UNK         0.3459 
    133 H133       36.7675    0.5209   -7.5714 H         1 UNK         0.3459 
    134 H134       34.2449   -2.5025   -5.7298 H         1 UNK         0.0612 
    135 H135       33.7109   -0.9131   -6.2198 H         1 UNK         0.0612 
    136 H136       30.3421   -2.0529   -7.4828 H         1 UNK         0.0624 
    137 H137       31.3752   -0.6600   -7.2711 H         1 UNK         0.0624 
@<TRIPOS>BOND
     1    1    2 1    
     2    1   72 1    
     3    1   73 1    
     4    1   74 1    
     5    2    3 2    
     6    2    4 am   BACKBONE|DICT|INTERRES
     7    4    5 1    
     8    4   75 1    
     9    5    6 1    
    10    5   35 1    
    11    5   76 1    
    12    6    7 1    
    13    6   77 1    
    14    6   78 1    
    15    7    8 1    
    16    8    9 1    
    17    8   79 1    
    18    8   80 1    
    19    9   10 ar   
    20    9   14 ar   
    21   10   11 ar   
    22   10   81 1    
    23   11   12 ar   
    24   11   71 1    
    25   12   13 ar   
    26   12   82 1    
    27   13   14 ar   
    28   13   15 1    
    29   14   83 1    
    30   15   16 1    
    31   15   84 1    
    32   15   85 1    
    33   16   17 1    
    34   17   18 1    
    35   17   86 1    
    36   17   87 1    
    37   18   19 1    
    38   18   37 1    
    39   18   88 1    
    40   19   20 am   BACKBONE|DICT|INTERRES
    41   19   89 1    
    42   20   21 2    
    43   20   22 1    
    44   22   23 1    
    45   22   24 1    
    46   22   90 1    
    47   23   91 1    
    48   23   92 1    
    49   23   93 1    
    50   24   25 am   BACKBONE|DICT|INTERRES
    51   24   94 1    
    52   25   26 2    
    53   25   27 1    
    54   27   28 1    
    55   27   29 1    
    56   27   95 1    
    57   28   96 1    
    58   28   97 1    
    59   28   98 1    
    60   29   30 am   BACKBONE|DICT|INTERRES
    61   29   99 1    
    62   30   31 2    
    63   30   32 1    
    64   32   33 1    
    65   32   34 1    
    66   32  100 1    
    67   33  101 1    
    68   33  102 1    
    69   33  103 1    
    70   34   35 am   BACKBONE|DICT|INTERRES
    71   34  104 1    
    72   35   36 2    
    73   37   38 2    
    74   37   39 am   BACKBONE|DICT|INTERRES
    75   39   40 1    
    76   39  105 1    
    77   40   41 1    
    78   40   42 1    
    79   40  106 1    
    80   41  107 1    
    81   41  108 1    
    82   41  109 1    
    83   42   43 2    
    84   42   44 am   BACKBONE|DICT|INTERRES
    85   44   45 1    
    86   44  110 1    
    87   45   46 1    
    88   45   47 1    
    89   45  111 1    
    90   46  112 1    
    91   46  113 1    
    92   46  114 1    
    93   47   48 2    
    94   47   49 am   BACKBONE|DICT|INTERRES
    95   49   50 1    
    96   49  115 1    
    97   50   51 1    
    98   50   52 1    
    99   50  116 1    
   100   51  117 1    
   101   51  118 1    
   102   51  119 1    
   103   52   53 2    
   104   52   54 am   BACKBONE|DICT|INTERRES
   105   54   55 1    
   106   54  120 1    
   107   55   56 1    
   108   55   57 1    
   109   55  121 1    
   110   56  122 1    
   111   56  123 1    
   112   56  124 1    
   113   57   58 2    
   114   57   59 am   BACKBONE|DICT|INTERRES
   115   59   60 1    
   116   59  125 1    
   117   60   61 1    
   118   60   62 1    
   119   60  126 1    
   120   61  127 1    
   121   61  128 1    
   122   61  129 1    
   123   62   63 2    
   124   62   64 am   BACKBONE|DICT|INTERRES
   125   64   65 1    
   126   64  130 1    
   127   65   66 1    
   128   65   69 1    
   129   65  131 1    
   130   66   67 am   BACKBONE|DICT|INTERRES
   131   66   68 2    
   132   67  132 1    
   133   67  133 1    
   134   69   70 1    
   135   69  134 1    
   136   69  135 1    
   137   70   71 1    
   138   71  136 1    
   139   71  137 1    
@<TRIPOS>SUBSTRUCTURE
     1 UNK         1 GROUP             0       ****    0 ROOT    
