@<TRIPOS>MOLECULE
3R137
137   139    1
SMALL
USER_CHARGES


@<TRIPOS>ATOM
      1 CA         31.3585   -0.0350   -1.2886 C.3       0 UNK        -0.2020 
      2 C          30.1954   -0.9078   -1.7308 C.2       0 UNK         0.4855 
      3 O          29.7615   -0.8137   -2.8768 O.2       0 UNK        -0.5197 
      4 N          29.6666   -1.7388   -0.8237 N.am      1 UNK        -0.4892 
      5 CA         28.6372   -2.7616   -1.0753 C.3       1 UNK         0.0835 
      6 C6         28.6715   -3.8975   -0.0095 C.3       12 UNK        -0.0855 
      7 S7         30.3387   -4.4936    0.4466 S.3       12 UNK        -0.2931 
      8 C8         30.6087   -5.8458   -0.7428 C.3       12 UNK         0.0378 
      9 C9         30.8692   -5.3136   -2.1437 C.ar      12 UNK        -0.0802 
     10 C10        32.0268   -4.5741   -2.4055 C.ar      12 UNK        -0.0944 
     11 C11        32.2770   -4.0525   -3.6778 C.ar      12 UNK        -0.0787 
     12 C12        31.3515   -4.3026   -4.7003 C.ar      12 UNK        -0.0862 
     13 C13        30.1819   -5.0253   -4.4494 C.ar      12 UNK        -0.0733 
     14 C14        29.9515   -5.5425   -3.1722 C.ar      12 UNK        -0.0832 
     15 C15        29.1536   -5.2159   -5.5559 C.3       12 UNK         0.0240 
     16 S16        27.6277   -4.2685   -5.2432 S.3       12 UNK        -0.2522 
     17 C17        28.2318   -2.5456   -5.1747 C.3       12 UNK        -0.0967 
     18 CA         27.8698   -1.7170   -6.4269 C.3       5 UNK         0.0660 
     19 N          26.4338   -1.7052   -6.7201 N.am      5 UNK        -0.4015 
     20 C          25.9098   -1.2150   -7.8535 C.2       4 UNK         0.4946 
     21 O          26.5918   -0.7531   -8.7706 O.2       4 UNK        -0.5353 
     22 CA         24.3760   -1.1810   -7.9822 C.3       4 UNK         0.0277 
     23 CB         23.8787   -2.4226   -8.7379 C.3       4 UNK        -0.1981 
     24 N          23.6610   -1.0637   -6.7062 N.am      4 UNK        -0.4209 
     25 C          23.8087   -0.0628   -5.8266 C.2       3 UNK         0.4942 
     26 O          24.5748    0.8864   -6.0021 O.2       3 UNK        -0.5208 
     27 CA         23.0259   -0.1430   -4.5008 C.3       3 UNK         0.0250 
     28 CB         22.2032   -1.4399   -4.3203 C.3       3 UNK        -0.1990 
     29 N          23.9188    0.0657   -3.3526 N.am      3 UNK        -0.4232 
     30 C          25.0249   -0.6396   -3.0686 C.2       2 UNK         0.4993 
     31 O          25.4044   -1.6014   -3.7404 O.2       2 UNK        -0.5286 
     32 CA         25.8592   -0.1389   -1.8729 C.3       2 UNK         0.0209 
     33 CB         25.0239   -0.0326   -0.5773 C.3       2 UNK        -0.1931 
     34 N          27.0843   -0.9208   -1.6491 N.am      2 UNK        -0.4546 
     35 C          27.2021   -2.1897   -1.2286 C.2       1 UNK         0.5154 
     36 O          26.2382   -2.8981   -0.9293 O.2       1 UNK        -0.5181 
     37 C          28.4399   -0.2887   -6.3077 C.2       5 UNK         0.5014 
     38 O          29.5710   -0.0546   -6.7309 O.2       5 UNK        -0.5248 
     39 N          27.6420    0.6469   -5.7772 N.am      6 UNK        -0.4434 
     40 CA         27.9941    2.0610   -5.6893 C.3       6 UNK         0.0363 
     41 CB         27.3685    2.6652   -4.4222 C.3       6 UNK        -0.1936 
     42 C          27.5443    2.8290   -6.9407 C.2       6 UNK         0.5081 
     43 O          28.3158    3.6307   -7.4647 O.2       6 UNK        -0.5248 
     44 N          26.3035    2.5918   -7.3858 N.am      7 UNK        -0.4718 
     45 CA         25.6497    3.3608   -8.4454 C.3       7 UNK         0.0273 
     46 CB         24.1294    3.1462   -8.3678 C.3       7 UNK        -0.1935 
     47 C          26.1614    3.0548   -9.8608 C.2       7 UNK         0.5018 
     48 O          26.2624    3.9846  -10.6628 O.2       7 UNK        -0.5186 
     49 N          26.4419    1.7783  -10.1571 N.am      8 UNK        -0.4240 
     50 CA         26.8336    1.3186  -11.4912 C.3       8 UNK         0.0235 
     51 CB         25.9174    0.1661  -11.9409 C.3       8 UNK        -0.2000 
     52 C          28.3065    0.8998  -11.5279 C.2       8 UNK         0.4941 
     53 O          29.0355    1.3644  -12.4053 O.2       8 UNK        -0.5273 
     54 N          28.7256    0.0324  -10.5940 N.am      9 UNK        -0.4262 
     55 CA         30.0903   -0.5106  -10.5622 C.3       9 UNK         0.0264 
     56 CB         30.1162   -1.8252   -9.7671 C.3       9 UNK        -0.1955 
     57 C          31.1378    0.4769  -10.0153 C.2       9 UNK         0.5031 
     58 O          32.3168    0.3247  -10.3385 O.2       9 UNK        -0.5390 
     59 N          30.6975    1.4546   -9.2069 N.am      10 UNK        -0.4204 
     60 CA         31.5016    2.4865   -8.5362 C.3       10 UNK         0.0237 
     61 CB         32.0778    3.4830   -9.5648 C.3       10 UNK        -0.1985 
     62 C          32.5722    1.9008   -7.5923 C.2       10 UNK         0.4970 
     63 O          33.7033    2.3896   -7.5586 O.2       10 UNK        -0.4914 
     64 N          32.1926    0.8555   -6.8484 N.am      11 UNK        -0.4285 
     65 CA         33.0539    0.1166   -5.9155 C.3       11 UNK         0.1007 
     66 C          33.3189    0.8402   -4.5622 C.2       11 UNK         0.5703 
     67 N          32.6182    1.9207   -4.2369 N.am      11 UNK        -0.7361 
     68 O          34.1893    0.4269   -3.8006 O.2       11 UNK        -0.4986 
     69 C69        32.5158   -1.3262   -5.7167 C.3       12 UNK        -0.0947 
     70 S70        33.8416   -2.5696   -5.5569 S.3       12 UNK        -0.2240 
     71 C71        33.5444   -3.2135   -3.8735 C.3       12 UNK         0.0194 
     72 H72        31.5380   -0.1056   -0.2161 H         1 UNK         0.0906 
     73 H73        32.2676   -0.3387   -1.8068 H         1 UNK         0.0906 
     74 H74        31.1598    1.0081   -1.5327 H         1 UNK         0.0906 
     75 H75        30.0569   -1.7600    0.1079 H         1 UNK         0.3140 
     76 H76        28.8703   -3.2127   -2.0416 H         1 UNK         0.1085 
     77 H77        28.2029   -3.5539    0.9150 H         1 UNK         0.0836 
     78 H78        28.0746   -4.7482   -0.3442 H         1 UNK         0.0836 
     79 H79        31.4714   -6.4306   -0.4207 H         1 UNK         0.0731 
     80 H80        29.7554   -6.5256   -0.7274 H         1 UNK         0.0731 
     81 H81        32.7281   -4.3871   -1.6033 H         1 UNK         0.1312 
     82 H82        31.5128   -3.9161   -5.6951 H         1 UNK         0.1406 
     83 H83        29.0443   -6.0987   -2.9772 H         1 UNK         0.1631 
     84 H84        28.9031   -6.2744   -5.6367 H         1 UNK         0.0717 
     85 H85        29.5606   -4.9220   -6.5248 H         1 UNK         0.0717 
     86 H86        29.3114   -2.5347   -5.0258 H         1 UNK         0.0934 
     87 H87        27.8200   -2.0839   -4.2783 H         1 UNK         0.0934 
     88 H88        28.3576   -2.1919   -7.2784 H         1 UNK         0.0739 
     89 H89        25.8243   -2.0343   -5.9812 H         1 UNK         0.3093 
     90 H90        24.1258   -0.3011   -8.5775 H         1 UNK         0.0818 
     91 H91        22.8078   -2.3668   -8.9341 H         1 UNK         0.0819 
     92 H92        24.3775   -2.5166   -9.7038 H         1 UNK         0.0819 
     93 H93        24.0727   -3.3400   -8.1805 H         1 UNK         0.0819 
     94 H94        23.0295   -1.8152   -6.4692 H         1 UNK         0.3041 
     95 H95        22.3287    0.6961   -4.5111 H         1 UNK         0.0784 
     96 H96        21.4548   -1.5501   -5.1061 H         1 UNK         0.0793 
     97 H97        22.8311   -2.3319   -4.3251 H         1 UNK         0.0793 
     98 H98        21.6639   -1.4278   -3.3730 H         1 UNK         0.0793 
     99 H99        23.7010    0.8673   -2.7777 H         1 UNK         0.3024 
    100 H100       26.1961    0.8651   -2.1340 H         1 UNK         0.1171 
    101 H101       25.6445    0.2552    0.2714 H         1 UNK         0.0786 
    102 H102       24.5355   -0.9755   -0.3289 H         1 UNK         0.0786 
    103 H103       24.2413    0.7211   -0.6671 H         1 UNK         0.0786 
    104 H104       27.9477   -0.4820   -1.9495 H         1 UNK         0.2977 
    105 H105       26.6951    0.3941   -5.5239 H         1 UNK         0.3127 
    106 H106       29.0781    2.1660   -5.6042 H         1 UNK         0.0770 
    107 H107       26.2831    2.5565   -4.4110 H         1 UNK         0.0814 
    108 H108       27.5912    3.7304   -4.3475 H         1 UNK         0.0814 
    109 H109       27.7661    2.1897   -3.5257 H         1 UNK         0.0814 
    110 H110       25.7159    1.9298   -6.8799 H         1 UNK         0.2983 
    111 H111       25.8443    4.4190   -8.2552 H         1 UNK         0.0947 
    112 H112       23.6109    3.7444   -9.1184 H         1 UNK         0.0806 
    113 H113       23.7373    3.4384   -7.3934 H         1 UNK         0.0806 
    114 H114       23.8583    2.1041   -8.5369 H         1 UNK         0.0806 
    115 H115       26.3734    1.0664   -9.4363 H         1 UNK         0.3000 
    116 H116       26.7122    2.1228  -12.2203 H         1 UNK         0.0850 
    117 H117       26.1717   -0.1589  -12.9505 H         1 UNK         0.0810 
    118 H118       24.8726    0.4763  -11.9551 H         1 UNK         0.0810 
    119 H119       25.9964   -0.7060  -11.2923 H         1 UNK         0.0810 
    120 H120       28.0568   -0.3225   -9.9134 H         1 UNK         0.3040 
    121 H121       30.3779   -0.7484  -11.5889 H         1 UNK         0.0766 
    122 H122       31.0687   -2.3382   -9.9058 H         1 UNK         0.0812 
    123 H123       30.0054   -1.6522   -8.6997 H         1 UNK         0.0812 
    124 H124       29.3290   -2.5079  -10.0872 H         1 UNK         0.0812 
    125 H125       29.7130    1.4542   -8.9799 H         1 UNK         0.3205 
    126 H126       30.8171    3.0411   -7.8950 H         1 UNK         0.0754 
    127 H127       32.5701    4.3192   -9.0668 H         1 UNK         0.0769 
    128 H128       31.2913    3.8998  -10.1940 H         1 UNK         0.0769 
    129 H129       32.8147    3.0123  -10.2165 H         1 UNK         0.0769 
    130 H130       31.2267    0.5319   -6.9028 H         1 UNK         0.2981 
    131 H131       34.0280    0.0443   -6.4029 H         1 UNK         0.0541 
    132 H132       31.9042    2.2690   -4.8544 H         1 UNK         0.3459 
    133 H133       32.8114    2.3904   -3.3672 H         1 UNK         0.3459 
    134 H134       31.9295   -1.6332   -6.5846 H         1 UNK         0.0612 
    135 H135       31.8259   -1.3790   -4.8716 H         1 UNK         0.0612 
    136 H136       34.4063   -3.8206   -3.5939 H         1 UNK         0.0624 
    137 H137       33.5231   -2.3707   -3.1808 H         1 UNK         0.0624 
@<TRIPOS>BOND
     1    1    2 1    
     2    1   72 1    
     3    1   73 1    
     4    1   74 1    
     5    2    3 2    
     6    2    4 am   BACKBONE|DICT|INTERRES
     7    4    5 1    
     8    4   75 1    
     9    5    6 1    
    10    5   35 1    
    11    5   76 1    
    12    6    7 1    
    13    6   77 1    
    14    6   78 1    
    15    7    8 1    
    16    8    9 1    
    17    8   79 1    
    18    8   80 1    
    19    9   10 ar   
    20    9   14 ar   
    21   10   11 ar   
    22   10   81 1    
    23   11   12 ar   
    24   11   71 1    
    25   12   13 ar   
    26   12   82 1    
    27   13   14 ar   
    28   13   15 1    
    29   14   83 1    
    30   15   16 1    
    31   15   84 1    
    32   15   85 1    
    33   16   17 1    
    34   17   18 1    
    35   17   86 1    
    36   17   87 1    
    37   18   19 1    
    38   18   37 1    
    39   18   88 1    
    40   19   20 am   BACKBONE|DICT|INTERRES
    41   19   89 1    
    42   20   21 2    
    43   20   22 1    
    44   22   23 1    
    45   22   24 1    
    46   22   90 1    
    47   23   91 1    
    48   23   92 1    
    49   23   93 1    
    50   24   25 am   BACKBONE|DICT|INTERRES
    51   24   94 1    
    52   25   26 2    
    53   25   27 1    
    54   27   28 1    
    55   27   29 1    
    56   27   95 1    
    57   28   96 1    
    58   28   97 1    
    59   28   98 1    
    60   29   30 am   BACKBONE|DICT|INTERRES
    61   29   99 1    
    62   30   31 2    
    63   30   32 1    
    64   32   33 1    
    65   32   34 1    
    66   32  100 1    
    67   33  101 1    
    68   33  102 1    
    69   33  103 1    
    70   34   35 am   BACKBONE|DICT|INTERRES
    71   34  104 1    
    72   35   36 2    
    73   37   38 2    
    74   37   39 am   BACKBONE|DICT|INTERRES
    75   39   40 1    
    76   39  105 1    
    77   40   41 1    
    78   40   42 1    
    79   40  106 1    
    80   41  107 1    
    81   41  108 1    
    82   41  109 1    
    83   42   43 2    
    84   42   44 am   BACKBONE|DICT|INTERRES
    85   44   45 1    
    86   44  110 1    
    87   45   46 1    
    88   45   47 1    
    89   45  111 1    
    90   46  112 1    
    91   46  113 1    
    92   46  114 1    
    93   47   48 2    
    94   47   49 am   BACKBONE|DICT|INTERRES
    95   49   50 1    
    96   49  115 1    
    97   50   51 1    
    98   50   52 1    
    99   50  116 1    
   100   51  117 1    
   101   51  118 1    
   102   51  119 1    
   103   52   53 2    
   104   52   54 am   BACKBONE|DICT|INTERRES
   105   54   55 1    
   106   54  120 1    
   107   55   56 1    
   108   55   57 1    
   109   55  121 1    
   110   56  122 1    
   111   56  123 1    
   112   56  124 1    
   113   57   58 2    
   114   57   59 am   BACKBONE|DICT|INTERRES
   115   59   60 1    
   116   59  125 1    
   117   60   61 1    
   118   60   62 1    
   119   60  126 1    
   120   61  127 1    
   121   61  128 1    
   122   61  129 1    
   123   62   63 2    
   124   62   64 am   BACKBONE|DICT|INTERRES
   125   64   65 1    
   126   64  130 1    
   127   65   66 1    
   128   65   69 1    
   129   65  131 1    
   130   66   67 am   BACKBONE|DICT|INTERRES
   131   66   68 2    
   132   67  132 1    
   133   67  133 1    
   134   69   70 1    
   135   69  134 1    
   136   69  135 1    
   137   70   71 1    
   138   71  136 1    
   139   71  137 1    
@<TRIPOS>SUBSTRUCTURE
     1 UNK         1 GROUP             0       ****    0 ROOT    
