@<TRIPOS>MOLECULE
3R137
137   139    1
SMALL
USER_CHARGES


@<TRIPOS>ATOM
      1 CA         27.9607   -1.2897    4.6743 C.3       0 UNK        -0.2020 
      2 C          28.1563   -0.8822    3.2215 C.2       0 UNK         0.4855 
      3 O          28.5254    0.2611    2.9507 O.2       0 UNK        -0.5197 
      4 N          27.9205   -1.8096    2.2849 N.am      1 UNK        -0.4892 
      5 CA         27.9865   -1.5689    0.8407 C.3       1 UNK         0.0835 
      6 C6         28.0783   -2.9056    0.0625 C.3       12 UNK        -0.0855 
      7 S7         28.4885   -2.6660   -1.6985 S.3       12 UNK        -0.2931 
      8 C8         29.6457   -4.0321   -2.0110 C.3       12 UNK         0.0378 
      9 C9         29.9268   -4.1457   -3.5005 C.ar      12 UNK        -0.0802 
     10 C10        31.0284   -3.4988   -4.0678 C.ar      12 UNK        -0.0944 
     11 C11        31.2527   -3.5525   -5.4481 C.ar      12 UNK        -0.0787 
     12 C12        30.3710   -4.2773   -6.2600 C.ar      12 UNK        -0.0862 
     13 C13        29.2809   -4.9524   -5.6980 C.ar      12 UNK        -0.0733 
     14 C14        29.0639   -4.8785   -4.3192 C.ar      12 UNK        -0.0832 
     15 C15        28.3575   -5.8044   -6.5581 C.3       12 UNK         0.0240 
     16 S16        26.6872   -5.0861   -6.7036 S.3       12 UNK        -0.2522 
     17 C17        26.6427   -4.5044   -8.4375 C.3       12 UNK        -0.0967 
     18 CA         26.3909   -2.9857   -8.5958 C.3       5 UNK         0.0660 
     19 N          25.1812   -2.5372   -7.9023 N.am      5 UNK        -0.4015 
     20 C          24.5939   -1.3475   -8.0924 C.2       4 UNK         0.4946 
     21 O          24.9715   -0.5230   -8.9247 O.2       4 UNK        -0.5353 
     22 CA         23.4236   -0.9966   -7.1568 C.3       4 UNK         0.0277 
     23 CB         22.1041   -1.5661   -7.7015 C.3       4 UNK        -0.1981 
     24 N          23.6306   -1.4527   -5.7763 N.am      4 UNK        -0.4209 
     25 C          24.6371   -1.0427   -4.9922 C.2       3 UNK         0.4942 
     26 O          25.4945   -0.2343   -5.3554 O.2       3 UNK        -0.5208 
     27 CA         24.7410   -1.7024   -3.6069 C.3       3 UNK         0.0250 
     28 CB         25.4338   -3.0711   -3.7215 C.3       3 UNK        -0.1990 
     29 N          25.4962   -0.8729   -2.6668 N.am      3 UNK        -0.4232 
     30 C          25.0534    0.2705   -2.1246 C.2       2 UNK         0.4993 
     31 O          23.9129    0.7071   -2.2952 O.2       2 UNK        -0.5286 
     32 CA         26.0562    1.0587   -1.2544 C.3       2 UNK         0.0209 
     33 CB         25.3684    2.0290   -0.2688 C.3       2 UNK        -0.1931 
     34 N          27.0313    0.2020   -0.5624 N.am      2 UNK        -0.4546 
     35 C          26.7790   -0.7234    0.3770 C.2       1 UNK         0.5154 
     36 O          25.6596   -0.9553    0.8422 O.2       1 UNK        -0.5181 
     37 C          27.6309   -2.1526   -8.2185 C.2       5 UNK         0.5014 
     38 O          28.4573   -1.8882   -9.0907 O.2       5 UNK        -0.5248 
     39 N          27.7235   -1.7207   -6.9524 N.am      6 UNK        -0.4434 
     40 CA         28.7955   -0.8582   -6.4577 C.3       6 UNK         0.0363 
     41 CB         28.7761   -0.8130   -4.9231 C.3       6 UNK        -0.1936 
     42 C          28.7024    0.5541   -7.0439 C.2       6 UNK         0.5081 
     43 O          29.7202    1.1051   -7.4630 O.2       6 UNK        -0.5248 
     44 N          27.4759    1.0912   -7.1053 N.am      7 UNK        -0.4718 
     45 CA         27.1556    2.3656   -7.7490 C.3       7 UNK         0.0273 
     46 CB         25.6923    2.7348   -7.4589 C.3       7 UNK        -0.1935 
     47 C          27.4333    2.3507   -9.2622 C.2       7 UNK         0.5018 
     48 O          27.9754    3.3270   -9.7805 O.2       7 UNK        -0.5186 
     49 N          27.0895    1.2406   -9.9329 N.am      8 UNK        -0.4240 
     50 CA         27.3752    1.0056  -11.3506 C.3       8 UNK         0.0235 
     51 CB         26.6074   -0.2325  -11.8407 C.3       8 UNK        -0.2000 
     52 C          28.8792    0.8659  -11.6427 C.2       8 UNK         0.4941 
     53 O          29.3587    1.4545  -12.6126 O.2       8 UNK        -0.5273 
     54 N          29.5963    0.1032  -10.8037 N.am      9 UNK        -0.4262 
     55 CA         31.0473   -0.0876  -10.8917 C.3       9 UNK         0.0264 
     56 CB         31.4684   -1.2532   -9.9796 C.3       9 UNK        -0.1955 
     57 C          31.8529    1.1725  -10.5339 C.2       9 UNK         0.5031 
     58 O          32.9495    1.3494  -11.0665 O.2       9 UNK        -0.5390 
     59 N          31.3105    1.9952   -9.6229 N.am      10 UNK        -0.4204 
     60 CA         31.9337    3.1604   -8.9850 C.3       10 UNK         0.0237 
     61 CB         32.2179    4.2796  -10.0094 C.3       10 UNK        -0.1985 
     62 C          33.1661    2.7621   -8.1489 C.2       10 UNK         0.4970 
     63 O          34.1722    3.4739   -8.1484 O.2       10 UNK        -0.4914 
     64 N          33.0638    1.6145   -7.4654 N.am      11 UNK        -0.4285 
     65 CA         34.1319    1.0135   -6.6526 C.3       11 UNK         0.1007 
     66 C          34.3623    1.6813   -5.2646 C.2       11 UNK         0.5703 
     67 N          33.5104    2.5954   -4.8145 N.am      11 UNK        -0.7361 
     68 O          35.3446    1.3761   -4.5921 O.2       11 UNK        -0.4986 
     69 C69        33.9671   -0.5273   -6.5555 C.3       12 UNK        -0.0947 
     70 S70        32.3929   -1.0448   -5.7963 S.3       12 UNK        -0.2240 
     71 C71        32.4607   -2.8451   -6.0517 C.3       12 UNK         0.0194 
     72 H72        28.8910   -1.1644    5.2278 H         1 UNK         0.0906 
     73 H73        27.2001   -0.6635    5.1399 H         1 UNK         0.0906 
     74 H74        27.6479   -2.3295    4.7686 H         1 UNK         0.0906 
     75 H75        27.5830   -2.7202    2.5635 H         1 UNK         0.3140 
     76 H76        28.9005   -1.0015    0.6487 H         1 UNK         0.1085 
     77 H77        28.8471   -3.5363    0.5123 H         1 UNK         0.0836 
     78 H78        27.1453   -3.4685    0.1345 H         1 UNK         0.0836 
     79 H79        30.5703   -3.8642   -1.4564 H         1 UNK         0.0731 
     80 H80        29.2211   -4.9661   -1.6395 H         1 UNK         0.0731 
     81 H81        31.7001   -2.9304   -3.4389 H         1 UNK         0.1312 
     82 H82        30.5415   -4.3290   -7.3267 H         1 UNK         0.1406 
     83 H83        28.2131   -5.3855   -3.8840 H         1 UNK         0.1631 
     84 H84        28.2646   -6.7891   -6.0978 H         1 UNK         0.0717 
     85 H85        28.7957   -5.9818   -7.5406 H         1 UNK         0.0717 
     86 H86        27.5533   -4.7916   -8.9662 H         1 UNK         0.0934 
     87 H87        25.8423   -5.0508   -8.9390 H         1 UNK         0.0934 
     88 H88        26.2208   -2.8072   -9.6597 H         1 UNK         0.0739 
     89 H89        24.8128   -3.1608   -7.1993 H         1 UNK         0.3093 
     90 H90        23.3411    0.0922   -7.1342 H         1 UNK         0.0818 
     91 H91        21.2540   -1.2424   -7.1007 H         1 UNK         0.0819 
     92 H92        21.9249   -1.2240   -8.7220 H         1 UNK         0.0819 
     93 H93        22.1078   -2.6566   -7.7196 H         1 UNK         0.0819 
     94 H94        22.9665   -2.1213   -5.4120 H         1 UNK         0.3041 
     95 H95        23.7340   -1.8451   -3.2090 H         1 UNK         0.0784 
     96 H96        26.4415   -2.9838   -4.1303 H         1 UNK         0.0793 
     97 H97        25.5126   -3.5579   -2.7491 H         1 UNK         0.0793 
     98 H98        24.8757   -3.7453   -4.3722 H         1 UNK         0.0793 
     99 H99        26.4470   -1.1576   -2.4783 H         1 UNK         0.3024 
    100 H100       26.6310    1.6655   -1.9563 H         1 UNK         0.1171 
    101 H101       24.7678    2.7671   -0.8019 H         1 UNK         0.0786 
    102 H102       26.1002    2.5773    0.3245 H         1 UNK         0.0786 
    103 H103       24.7024    1.5065    0.4183 H         1 UNK         0.0786 
    104 H104       27.9858    0.2932   -0.8840 H         1 UNK         0.2977 
    105 H105       26.9818   -1.9406   -6.3052 H         1 UNK         0.3127 
    106 H106       29.7387   -1.2987   -6.7811 H         1 UNK         0.0770 
    107 H107       27.9184   -0.2675   -4.5321 H         1 UNK         0.0814 
    108 H108       29.6713   -0.3233   -4.5392 H         1 UNK         0.0814 
    109 H109       28.7513   -1.8167   -4.5057 H         1 UNK         0.0814 
    110 H110       26.7061    0.5793   -6.6819 H         1 UNK         0.2983 
    111 H111       27.7964    3.1299   -7.3038 H         1 UNK         0.0947 
    112 H112       25.4413    3.7036   -7.8927 H         1 UNK         0.0806 
    113 H113       25.5051    2.7996   -6.3867 H         1 UNK         0.0806 
    114 H114       24.9999    2.0020   -7.8738 H         1 UNK         0.0806 
    115 H115       26.5721    0.5167   -9.4417 H         1 UNK         0.3000 
    116 H116       27.0099    1.8708  -11.9082 H         1 UNK         0.0850 
    117 H117       26.7752   -0.3991  -12.9055 H         1 UNK         0.0810 
    118 H118       25.5332   -0.1161  -11.6956 H         1 UNK         0.0810 
    119 H119       26.9196   -1.1354  -11.3162 H         1 UNK         0.0810 
    120 H120       29.1143   -0.4190  -10.0744 H         1 UNK         0.3040 
    121 H121       31.2910   -0.3545  -11.9222 H         1 UNK         0.0766 
    122 H122       32.5449   -1.4221  -10.0290 H         1 UNK         0.0812 
    123 H123       30.9810   -2.1827  -10.2739 H         1 UNK         0.0812 
    124 H124       31.2160   -1.0607   -8.9358 H         1 UNK         0.0812 
    125 H125       30.4435    1.6943   -9.1853 H         1 UNK         0.3205 
    126 H126       31.1975    3.5434   -8.2766 H         1 UNK         0.0754 
    127 H127       32.5493    5.1905   -9.5095 H         1 UNK         0.0769 
    128 H128       31.3222    4.5297  -10.5784 H         1 UNK         0.0769 
    129 H129       32.9974    3.9965  -10.7172 H         1 UNK         0.0769 
    130 H130       32.1845    1.1152   -7.4777 H         1 UNK         0.2981 
    131 H131       35.0646    1.1808   -7.1947 H         1 UNK         0.0541 
    132 H132       33.6748    3.0253   -3.9182 H         1 UNK         0.3459 
    133 H133       32.7008    2.8479   -5.3570 H         1 UNK         0.3459 
    134 H134       34.7915   -0.9710   -5.9943 H         1 UNK         0.0612 
    135 H135       34.0200   -0.9600   -7.5558 H         1 UNK         0.0612 
    136 H136       32.5326   -3.0471   -7.1215 H         1 UNK         0.0624 
    137 H137       33.3699   -3.2391   -5.5956 H         1 UNK         0.0624 
@<TRIPOS>BOND
     1    1    2 1    
     2    1   72 1    
     3    1   73 1    
     4    1   74 1    
     5    2    3 2    
     6    2    4 am   BACKBONE|DICT|INTERRES
     7    4    5 1    
     8    4   75 1    
     9    5    6 1    
    10    5   35 1    
    11    5   76 1    
    12    6    7 1    
    13    6   77 1    
    14    6   78 1    
    15    7    8 1    
    16    8    9 1    
    17    8   79 1    
    18    8   80 1    
    19    9   10 ar   
    20    9   14 ar   
    21   10   11 ar   
    22   10   81 1    
    23   11   12 ar   
    24   11   71 1    
    25   12   13 ar   
    26   12   82 1    
    27   13   14 ar   
    28   13   15 1    
    29   14   83 1    
    30   15   16 1    
    31   15   84 1    
    32   15   85 1    
    33   16   17 1    
    34   17   18 1    
    35   17   86 1    
    36   17   87 1    
    37   18   19 1    
    38   18   37 1    
    39   18   88 1    
    40   19   20 am   BACKBONE|DICT|INTERRES
    41   19   89 1    
    42   20   21 2    
    43   20   22 1    
    44   22   23 1    
    45   22   24 1    
    46   22   90 1    
    47   23   91 1    
    48   23   92 1    
    49   23   93 1    
    50   24   25 am   BACKBONE|DICT|INTERRES
    51   24   94 1    
    52   25   26 2    
    53   25   27 1    
    54   27   28 1    
    55   27   29 1    
    56   27   95 1    
    57   28   96 1    
    58   28   97 1    
    59   28   98 1    
    60   29   30 am   BACKBONE|DICT|INTERRES
    61   29   99 1    
    62   30   31 2    
    63   30   32 1    
    64   32   33 1    
    65   32   34 1    
    66   32  100 1    
    67   33  101 1    
    68   33  102 1    
    69   33  103 1    
    70   34   35 am   BACKBONE|DICT|INTERRES
    71   34  104 1    
    72   35   36 2    
    73   37   38 2    
    74   37   39 am   BACKBONE|DICT|INTERRES
    75   39   40 1    
    76   39  105 1    
    77   40   41 1    
    78   40   42 1    
    79   40  106 1    
    80   41  107 1    
    81   41  108 1    
    82   41  109 1    
    83   42   43 2    
    84   42   44 am   BACKBONE|DICT|INTERRES
    85   44   45 1    
    86   44  110 1    
    87   45   46 1    
    88   45   47 1    
    89   45  111 1    
    90   46  112 1    
    91   46  113 1    
    92   46  114 1    
    93   47   48 2    
    94   47   49 am   BACKBONE|DICT|INTERRES
    95   49   50 1    
    96   49  115 1    
    97   50   51 1    
    98   50   52 1    
    99   50  116 1    
   100   51  117 1    
   101   51  118 1    
   102   51  119 1    
   103   52   53 2    
   104   52   54 am   BACKBONE|DICT|INTERRES
   105   54   55 1    
   106   54  120 1    
   107   55   56 1    
   108   55   57 1    
   109   55  121 1    
   110   56  122 1    
   111   56  123 1    
   112   56  124 1    
   113   57   58 2    
   114   57   59 am   BACKBONE|DICT|INTERRES
   115   59   60 1    
   116   59  125 1    
   117   60   61 1    
   118   60   62 1    
   119   60  126 1    
   120   61  127 1    
   121   61  128 1    
   122   61  129 1    
   123   62   63 2    
   124   62   64 am   BACKBONE|DICT|INTERRES
   125   64   65 1    
   126   64  130 1    
   127   65   66 1    
   128   65   69 1    
   129   65  131 1    
   130   66   67 am   BACKBONE|DICT|INTERRES
   131   66   68 2    
   132   67  132 1    
   133   67  133 1    
   134   69   70 1    
   135   69  134 1    
   136   69  135 1    
   137   70   71 1    
   138   71  136 1    
   139   71  137 1    
@<TRIPOS>SUBSTRUCTURE
     1 UNK         1 GROUP             0       ****    0 ROOT    
