@<TRIPOS>MOLECULE
3R137
137   139    1
SMALL
USER_CHARGES


@<TRIPOS>ATOM
      1 CA         27.6985   -2.2622   -4.7618 C.3       0 UNK        -0.2020 
      2 C          27.1553   -3.4957   -4.0636 C.2       0 UNK         0.4855 
      3 O          26.2888   -4.1848   -4.6044 O.2       0 UNK        -0.5197 
      4 N          27.6572   -3.7792   -2.8577 N.am      1 UNK        -0.4892 
      5 CA         27.2051   -4.8716   -1.9952 C.3       1 UNK         0.0835 
      6 C6         28.1831   -5.1114   -0.8215 C.3       12 UNK        -0.0855 
      7 S7         29.7767   -5.7789   -1.4068 S.3       12 UNK        -0.2931 
      8 C8         30.9414   -4.4354   -1.0057 C.3       12 UNK         0.0378 
      9 C9         30.9015   -3.2719   -1.9922 C.ar      12 UNK        -0.0802 
     10 C10        31.1166   -3.4897   -3.3575 C.ar      12 UNK        -0.0944 
     11 C11        31.1917   -2.4138   -4.2481 C.ar      12 UNK        -0.0787 
     12 C12        31.0495   -1.1093   -3.7662 C.ar      12 UNK        -0.0862 
     13 C13        30.8268   -0.8771   -2.4061 C.ar      12 UNK        -0.0733 
     14 C14        30.7411   -1.9625   -1.5268 C.ar      12 UNK        -0.0832 
     15 C15        30.7425    0.5458   -1.8722 C.3       12 UNK         0.0240 
     16 S16        29.1104    1.2948   -2.1621 S.3       12 UNK        -0.2522 
     17 C17        29.3398    2.1673   -3.7538 C.3       12 UNK        -0.0967 
     18 CA         28.3704    1.6743   -4.8553 C.3       5 UNK         0.0660 
     19 N          26.9720    1.6820   -4.4045 N.am      5 UNK        -0.4015 
     20 C          25.9404    1.1926   -5.1008 C.2       4 UNK         0.4946 
     21 O          26.0466    0.7098   -6.2311 O.2       4 UNK        -0.5353 
     22 CA         24.5514    1.3214   -4.4575 C.3       4 UNK         0.0277 
     23 CB         23.8025    2.5325   -5.0372 C.3       4 UNK        -0.1981 
     24 N          23.7654    0.1090   -4.6835 N.am      4 UNK        -0.4209 
     25 C          24.0232   -1.0605   -4.0862 C.2       3 UNK         0.4942 
     26 O          24.8620   -1.1938   -3.1915 O.2       3 UNK        -0.5208 
     27 CA         23.2262   -2.2725   -4.5962 C.3       3 UNK         0.0250 
     28 CB         23.5805   -2.5843   -6.0626 C.3       3 UNK        -0.1990 
     29 N          23.5167   -3.4531   -3.7820 N.am      3 UNK        -0.4232 
     30 C          22.8320   -3.8176   -2.6888 C.2       2 UNK         0.4993 
     31 O          21.8078   -3.2511   -2.3038 O.2       2 UNK        -0.5286 
     32 CA         23.3613   -5.0221   -1.8874 C.3       2 UNK         0.0209 
     33 CB         22.5746   -6.2938   -2.2466 C.3       2 UNK        -0.1931 
     34 N          24.7895   -5.2650   -2.1058 N.am      2 UNK        -0.4546 
     35 C          25.7731   -4.5861   -1.5001 C.2       1 UNK         0.5154 
     36 O          25.5872   -3.7524   -0.6110 O.2       1 UNK        -0.5181 
     37 C          28.5720    2.4792   -6.1581 C.2       5 UNK         0.5014 
     38 O          29.3976    2.0960   -6.9884 O.2       5 UNK        -0.5248 
     39 N          27.7864    3.5538   -6.3268 N.am      6 UNK        -0.4434 
     40 CA         27.7311    4.3745   -7.5369 C.3       6 UNK         0.0363 
     41 CB         27.0186    5.6992   -7.2221 C.3       6 UNK        -0.1936 
     42 C          27.0458    3.6663   -8.7187 C.2       6 UNK         0.5081 
     43 O          27.4339    3.9096   -9.8600 O.2       6 UNK        -0.5248 
     44 N          26.0722    2.7836   -8.4445 N.am      7 UNK        -0.4718 
     45 CA         25.4106    1.9537   -9.4603 C.3       7 UNK         0.0273 
     46 CB         24.0813    1.4030   -8.9186 C.3       7 UNK        -0.1935 
     47 C          26.3246    0.8163   -9.9438 C.2       7 UNK         0.5018 
     48 O          26.3096    0.4867  -11.1297 O.2       7 UNK        -0.5186 
     49 N          27.1508    0.2883   -9.0295 N.am      8 UNK        -0.4240 
     50 CA         28.2639   -0.6195   -9.3263 C.3       8 UNK         0.0235 
     51 CB         28.6465   -1.3699   -8.0426 C.3       8 UNK        -0.2000 
     52 C          29.4927    0.0869   -9.9395 C.2       8 UNK         0.4941 
     53 O          30.4463   -0.5971  -10.3126 O.2       8 UNK        -0.5273 
     54 N          29.4521    1.4254  -10.0304 N.am      9 UNK        -0.4262 
     55 CA         30.4551    2.3278  -10.6030 C.3       9 UNK         0.0264 
     56 CB         30.5812    2.1033  -12.1256 C.3       9 UNK        -0.1955 
     57 C          31.8111    2.2970   -9.8723 C.2       9 UNK         0.5031 
     58 O          32.8454    2.4505  -10.5247 O.2       9 UNK        -0.5390 
     59 N          31.7756    2.1292   -8.5387 N.am      10 UNK        -0.4204 
     60 CA         32.9143    2.0734   -7.6119 C.3       10 UNK         0.0237 
     61 CB         33.5703    3.4637   -7.4771 C.3       10 UNK        -0.1985 
     62 C          33.9222    0.9737   -7.9984 C.2       10 UNK         0.4970 
     63 O          34.9841    1.2701   -8.5496 O.2       10 UNK        -0.4914 
     64 N          33.5414   -0.2801   -7.7241 N.am      11 UNK        -0.4285 
     65 CA         34.2687   -1.5059   -8.0977 C.3       11 UNK         0.1007 
     66 C          35.7376   -1.6400   -7.5873 C.2       11 UNK         0.5703 
     67 N          36.1587   -0.9046   -6.5649 N.am      11 UNK        -0.7361 
     68 O          36.5071   -2.4250   -8.1368 O.2       11 UNK        -0.4986 
     69 C69        33.4284   -2.7722   -7.7740 C.3       12 UNK        -0.0947 
     70 S70        33.2176   -3.0609   -5.9816 S.3       12 UNK        -0.2240 
     71 C71        31.4657   -2.6580   -5.7236 C.3       12 UNK         0.0194 
     72 H72        28.5056   -2.5444   -5.4341 H         1 UNK         0.0906 
     73 H73        26.9141   -1.7784   -5.3424 H         1 UNK         0.0906 
     74 H74        28.0797   -1.5362   -4.0439 H         1 UNK         0.0906 
     75 H75        28.3839   -3.1929   -2.4715 H         1 UNK         0.3140 
     76 H76        27.1788   -5.7837   -2.5963 H         1 UNK         0.1085 
     77 H77        27.7669   -5.8370   -0.1198 H         1 UNK         0.0836 
     78 H78        28.3403   -4.1942   -0.2503 H         1 UNK         0.0836 
     79 H79        30.7614   -4.0960    0.0156 H         1 UNK         0.0731 
     80 H80        31.9515   -4.8475   -1.0107 H         1 UNK         0.0731 
     81 H81        31.2573   -4.4976   -3.7239 H         1 UNK         0.1312 
     82 H82        31.1309   -0.2726   -4.4456 H         1 UNK         0.1406 
     83 H83        30.5929   -1.7827   -0.4703 H         1 UNK         0.1631 
     84 H84        31.5307    1.1604   -2.3089 H         1 UNK         0.0717 
     85 H85        30.9299    0.5507   -0.7973 H         1 UNK         0.0717 
     86 H86        29.1957    3.2332   -3.5654 H         1 UNK         0.0934 
     87 H87        30.3731    2.0633   -4.0893 H         1 UNK         0.0934 
     88 H88        28.6242    0.6380   -5.0856 H         1 UNK         0.0739 
     89 H89        26.8127    2.0416   -3.4741 H         1 UNK         0.3093 
     90 H90        24.6654    1.4647   -3.3805 H         1 UNK         0.0818 
     91 H91        22.8243    2.6523   -4.5711 H         1 UNK         0.0819 
     92 H92        24.3555    3.4565   -4.8639 H         1 UNK         0.0819 
     93 H93        23.6502    2.4403   -6.1127 H         1 UNK         0.0819 
     94 H94        23.0878    0.1396   -5.4309 H         1 UNK         0.3041 
     95 H95        22.1620   -2.0342   -4.5366 H         1 UNK         0.0784 
     96 H96        23.2935   -1.7669   -6.7250 H         1 UNK         0.0793 
     97 H97        24.6508   -2.7459   -6.1958 H         1 UNK         0.0793 
     98 H98        23.0628   -3.4771   -6.4136 H         1 UNK         0.0793 
     99 H99        24.3993   -3.9138   -3.9825 H         1 UNK         0.3024 
    100 H100       23.1965   -4.8055   -0.8290 H         1 UNK         0.1171 
    101 H101       22.6977   -6.5631   -3.2964 H         1 UNK         0.0786 
    102 H102       21.5072   -6.1551   -2.0689 H         1 UNK         0.0786 
    103 H103       22.8942   -7.1425   -1.6414 H         1 UNK         0.0786 
    104 H104       25.0305   -5.9091   -2.8466 H         1 UNK         0.2977 
    105 H105       27.1510    3.8015   -5.5827 H         1 UNK         0.3127 
    106 H106       28.7561    4.6017   -7.8391 H         1 UNK         0.0770 
    107 H107       25.9888    5.5399   -6.8997 H         1 UNK         0.0814 
    108 H108       26.9877    6.3430   -8.1024 H         1 UNK         0.0814 
    109 H109       27.5359    6.2521   -6.4378 H         1 UNK         0.0814 
    110 H110       25.8550    2.5740   -7.4799 H         1 UNK         0.2983 
    111 H111       25.1846    2.5837  -10.3239 H         1 UNK         0.0947 
    112 H112       23.5583    0.8333   -9.6879 H         1 UNK         0.0806 
    113 H113       23.4160    2.2080   -8.6070 H         1 UNK         0.0806 
    114 H114       24.2274    0.7356   -8.0696 H         1 UNK         0.0806 
    115 H115       27.0306    0.5702   -8.0616 H         1 UNK         0.3000 
    116 H116       27.9229   -1.3543  -10.0588 H         1 UNK         0.0850 
    117 H117       28.9675   -0.6865   -7.2561 H         1 UNK         0.0810 
    118 H118       27.8012   -1.9475   -7.6696 H         1 UNK         0.0810 
    119 H119       29.4614   -2.0719   -8.2240 H         1 UNK         0.0810 
    120 H120       28.6253    1.8849   -9.6742 H         1 UNK         0.3040 
    121 H121       30.0670    3.3365  -10.4561 H         1 UNK         0.0766 
    122 H122       29.6085    2.1541  -12.6150 H         1 UNK         0.0812 
    123 H123       31.0234    1.1335  -12.3557 H         1 UNK         0.0812 
    124 H124       31.2124    2.8656  -12.5838 H         1 UNK         0.0812 
    125 H125       30.8597    2.0305   -8.1002 H         1 UNK         0.3205 
    126 H126       32.5068    1.8105   -6.6342 H         1 UNK         0.0754 
    127 H127       32.8512    4.2078   -7.1345 H         1 UNK         0.0769 
    128 H128       33.9870    3.8128   -8.4226 H         1 UNK         0.0769 
    129 H129       34.3849    3.4410   -6.7522 H         1 UNK         0.0769 
    130 H130       32.6554   -0.4256   -7.2675 H         1 UNK         0.2981 
    131 H131       34.3546   -1.4623   -9.1851 H         1 UNK         0.0541 
    132 H132       35.5333   -0.2602   -6.1099 H         1 UNK         0.3459 
    133 H133       37.1102   -0.9979   -6.2473 H         1 UNK         0.3459 
    134 H134       32.4500   -2.7062   -8.2530 H         1 UNK         0.0612 
    135 H135       33.9020   -3.6570   -8.2031 H         1 UNK         0.0612 
    136 H136       30.8465   -3.4778   -6.0909 H         1 UNK         0.0624 
    137 H137       31.1997   -1.7769   -6.3085 H         1 UNK         0.0624 
@<TRIPOS>BOND
     1    1    2 1    
     2    1   72 1    
     3    1   73 1    
     4    1   74 1    
     5    2    3 2    
     6    2    4 am   BACKBONE|DICT|INTERRES
     7    4    5 1    
     8    4   75 1    
     9    5    6 1    
    10    5   35 1    
    11    5   76 1    
    12    6    7 1    
    13    6   77 1    
    14    6   78 1    
    15    7    8 1    
    16    8    9 1    
    17    8   79 1    
    18    8   80 1    
    19    9   10 ar   
    20    9   14 ar   
    21   10   11 ar   
    22   10   81 1    
    23   11   12 ar   
    24   11   71 1    
    25   12   13 ar   
    26   12   82 1    
    27   13   14 ar   
    28   13   15 1    
    29   14   83 1    
    30   15   16 1    
    31   15   84 1    
    32   15   85 1    
    33   16   17 1    
    34   17   18 1    
    35   17   86 1    
    36   17   87 1    
    37   18   19 1    
    38   18   37 1    
    39   18   88 1    
    40   19   20 am   BACKBONE|DICT|INTERRES
    41   19   89 1    
    42   20   21 2    
    43   20   22 1    
    44   22   23 1    
    45   22   24 1    
    46   22   90 1    
    47   23   91 1    
    48   23   92 1    
    49   23   93 1    
    50   24   25 am   BACKBONE|DICT|INTERRES
    51   24   94 1    
    52   25   26 2    
    53   25   27 1    
    54   27   28 1    
    55   27   29 1    
    56   27   95 1    
    57   28   96 1    
    58   28   97 1    
    59   28   98 1    
    60   29   30 am   BACKBONE|DICT|INTERRES
    61   29   99 1    
    62   30   31 2    
    63   30   32 1    
    64   32   33 1    
    65   32   34 1    
    66   32  100 1    
    67   33  101 1    
    68   33  102 1    
    69   33  103 1    
    70   34   35 am   BACKBONE|DICT|INTERRES
    71   34  104 1    
    72   35   36 2    
    73   37   38 2    
    74   37   39 am   BACKBONE|DICT|INTERRES
    75   39   40 1    
    76   39  105 1    
    77   40   41 1    
    78   40   42 1    
    79   40  106 1    
    80   41  107 1    
    81   41  108 1    
    82   41  109 1    
    83   42   43 2    
    84   42   44 am   BACKBONE|DICT|INTERRES
    85   44   45 1    
    86   44  110 1    
    87   45   46 1    
    88   45   47 1    
    89   45  111 1    
    90   46  112 1    
    91   46  113 1    
    92   46  114 1    
    93   47   48 2    
    94   47   49 am   BACKBONE|DICT|INTERRES
    95   49   50 1    
    96   49  115 1    
    97   50   51 1    
    98   50   52 1    
    99   50  116 1    
   100   51  117 1    
   101   51  118 1    
   102   51  119 1    
   103   52   53 2    
   104   52   54 am   BACKBONE|DICT|INTERRES
   105   54   55 1    
   106   54  120 1    
   107   55   56 1    
   108   55   57 1    
   109   55  121 1    
   110   56  122 1    
   111   56  123 1    
   112   56  124 1    
   113   57   58 2    
   114   57   59 am   BACKBONE|DICT|INTERRES
   115   59   60 1    
   116   59  125 1    
   117   60   61 1    
   118   60   62 1    
   119   60  126 1    
   120   61  127 1    
   121   61  128 1    
   122   61  129 1    
   123   62   63 2    
   124   62   64 am   BACKBONE|DICT|INTERRES
   125   64   65 1    
   126   64  130 1    
   127   65   66 1    
   128   65   69 1    
   129   65  131 1    
   130   66   67 am   BACKBONE|DICT|INTERRES
   131   66   68 2    
   132   67  132 1    
   133   67  133 1    
   134   69   70 1    
   135   69  134 1    
   136   69  135 1    
   137   70   71 1    
   138   71  136 1    
   139   71  137 1    
@<TRIPOS>SUBSTRUCTURE
     1 UNK         1 GROUP             0       ****    0 ROOT    
