@<TRIPOS>MOLECULE
3R137
137   139    1
SMALL
USER_CHARGES


@<TRIPOS>ATOM
      1 CA         29.3772   -7.1754   -5.0960 C.3       0 UNK        -0.2020 
      2 C          28.6556   -6.8534   -3.7958 C.2       0 UNK         0.4855 
      3 O          28.0754   -7.7478   -3.1789 O.2       0 UNK        -0.5197 
      4 N          28.6900   -5.5839   -3.3754 N.am      1 UNK        -0.4892 
      5 CA         27.9589   -5.0714   -2.2132 C.3       1 UNK         0.0835 
      6 C6         28.5712   -3.7411   -1.7123 C.3       12 UNK        -0.0855 
      7 S7         30.1525   -3.9896   -0.8298 S.3       12 UNK        -0.2931 
      8 C8         31.3492   -3.0638   -1.8599 C.3       12 UNK         0.0378 
      9 C9         31.1850   -1.5401   -1.9064 C.ar      12 UNK        -0.0802 
     10 C10        32.1294   -0.7916   -2.6169 C.ar      12 UNK        -0.0944 
     11 C11        31.9871    0.5920   -2.7732 C.ar      12 UNK        -0.0787 
     12 C12        30.8945    1.2390   -2.1870 C.ar      12 UNK        -0.0862 
     13 C13        29.9505    0.5085   -1.4583 C.ar      12 UNK        -0.0733 
     14 C14        30.1149   -0.8681   -1.3038 C.ar      12 UNK        -0.0832 
     15 C15        28.7138    1.1759   -0.8761 C.3       12 UNK         0.0240 
     16 S16        27.2295    0.7650   -1.8570 S.3       12 UNK        -0.2522 
     17 C17        27.5586    1.6990   -3.3852 C.3       12 UNK        -0.0967 
     18 CA         28.2046    0.8256   -4.5003 C.3       5 UNK         0.0660 
     19 N          27.2739   -0.1748   -5.0256 N.am      5 UNK        -0.4015 
     20 C          27.5874   -1.4272   -5.3752 C.2       4 UNK         0.4946 
     21 O          28.6718   -1.9637   -5.1434 O.2       4 UNK        -0.5353 
     22 CA         26.4936   -2.2094   -6.1219 C.3       4 UNK         0.0277 
     23 CB         26.9972   -3.5624   -6.6619 C.3       4 UNK        -0.1981 
     24 N          25.3116   -2.4225   -5.2825 N.am      4 UNK        -0.4209 
     25 C          24.3514   -1.5075   -5.0761 C.2       3 UNK         0.4942 
     26 O          24.4030   -0.3669   -5.5414 O.2       3 UNK        -0.5208 
     27 CA         23.1233   -1.9071   -4.2360 C.3       3 UNK         0.0250 
     28 CB         21.9104   -2.1492   -5.1497 C.3       3 UNK        -0.1990 
     29 N          23.3383   -3.0961   -3.4096 N.am      3 UNK        -0.4232 
     30 C          23.9793   -3.0976   -2.2341 C.2       2 UNK         0.4993 
     31 O          24.4173   -2.0822   -1.6923 O.2       2 UNK        -0.5286 
     32 CA         24.2015   -4.4602   -1.5470 C.3       2 UNK         0.0209 
     33 CB         23.3909   -5.6278   -2.1582 C.3       2 UNK        -0.1931 
     34 N          25.6320   -4.7888   -1.4953 N.am      2 UNK        -0.4546 
     35 C          26.4631   -4.8834   -2.5447 C.2       1 UNK         0.5154 
     36 O          26.0907   -4.7846   -3.7172 O.2       1 UNK        -0.5181 
     37 C          28.7655    1.6472   -5.6835 C.2       5 UNK         0.5014 
     38 O          29.0734    1.0783   -6.7323 O.2       5 UNK        -0.5248 
     39 N          28.8845    2.9728   -5.5195 N.am      6 UNK        -0.4434 
     40 CA         29.3873    3.9120   -6.5268 C.3       6 UNK         0.0363 
     41 CB         29.7035    5.2528   -5.8445 C.3       6 UNK        -0.1936 
     42 C          28.4454    4.1207   -7.7294 C.2       6 UNK         0.5081 
     43 O          28.8515    4.7671   -8.6960 O.2       6 UNK        -0.5248 
     44 N          27.2227    3.5711   -7.6729 N.am      7 UNK        -0.4718 
     45 CA         26.2590    3.5068   -8.7745 C.3       7 UNK         0.0273 
     46 CB         24.9922    2.7790   -8.2935 C.3       7 UNK        -0.1935 
     47 C          26.8742    2.7974   -9.9931 C.2       7 UNK         0.5018 
     48 O          27.2144    1.6166   -9.8969 O.2       7 UNK        -0.5186 
     49 N          27.0867    3.5615  -11.0751 N.am      8 UNK        -0.4240 
     50 CA         27.8177    3.1837  -12.2948 C.3       8 UNK         0.0235 
     51 CB         27.0387    2.1089  -13.0838 C.3       8 UNK        -0.2000 
     52 C          29.2887    2.7767  -12.0443 C.2       8 UNK         0.4941 
     53 O          29.8697    2.0781  -12.8765 O.2       8 UNK        -0.5273 
     54 N          29.8586    3.2104  -10.9065 N.am      9 UNK        -0.4262 
     55 CA         31.1833    2.8676  -10.3763 C.3       9 UNK         0.0264 
     56 CB         32.2921    3.5259  -11.2249 C.3       9 UNK        -0.1955 
     57 C          31.3907    1.3502  -10.1828 C.2       9 UNK         0.5031 
     58 O          32.4937    0.8560  -10.4255 O.2       9 UNK        -0.5390 
     59 N          30.3291    0.6348   -9.7766 N.am      10 UNK        -0.4204 
     60 CA         30.3223   -0.8206   -9.6148 C.3       10 UNK         0.0237 
     61 CB         28.8838   -1.3170   -9.3903 C.3       10 UNK        -0.1985 
     62 C          31.2690   -1.3078   -8.5056 C.2       10 UNK         0.4970 
     63 O          32.1782   -2.0850   -8.7998 O.2       10 UNK        -0.4914 
     64 N          31.0381   -0.8300   -7.2746 N.am      11 UNK        -0.4285 
     65 CA         31.7846   -1.1365   -6.0425 C.3       11 UNK         0.1007 
     66 C          32.0475   -2.6555   -5.8270 C.2       11 UNK         0.5703 
     67 N          30.9938   -3.4445   -5.6726 N.am      11 UNK        -0.7361 
     68 O          33.1846   -3.1220   -5.7985 O.2       11 UNK        -0.4986 
     69 C69        33.0484   -0.2455   -5.8878 C.3       12 UNK        -0.0947 
     70 S70        32.6113    1.4456   -5.3567 S.3       12 UNK        -0.2240 
     71 C71        33.0102    1.3880   -3.5761 C.3       12 UNK         0.0194 
     72 H72        30.2716   -7.7640   -4.8941 H         1 UNK         0.0906 
     73 H73        28.7278   -7.7555   -5.7512 H         1 UNK         0.0906 
     74 H74        29.6723   -6.2742   -5.6323 H         1 UNK         0.0906 
     75 H75        29.1494   -4.8822   -3.9362 H         1 UNK         0.3140 
     76 H76        28.0208   -5.8111   -1.4113 H         1 UNK         0.1085 
     77 H77        27.9007   -3.2428   -1.0090 H         1 UNK         0.0836 
     78 H78        28.7009   -3.0436   -2.5429 H         1 UNK         0.0836 
     79 H79        31.3002   -3.4552   -2.8760 H         1 UNK         0.0731 
     80 H80        32.3505   -3.2924   -1.4921 H         1 UNK         0.0731 
     81 H81        32.9695   -1.2967   -3.0727 H         1 UNK         0.1312 
     82 H82        30.7702    2.3055   -2.3150 H         1 UNK         0.1406 
     83 H83        29.3707   -1.4044   -0.7365 H         1 UNK         0.1631 
     84 H84        28.8389    2.2583   -0.8201 H         1 UNK         0.0717 
     85 H85        28.5656    0.8331    0.1490 H         1 UNK         0.0717 
     86 H86        28.1937    2.5395   -3.1042 H         1 UNK         0.0934 
     87 H87        26.6179    2.1315   -3.7314 H         1 UNK         0.0934 
     88 H88        29.0660    0.3100   -4.0745 H         1 UNK         0.0739 
     89 H89        26.3340    0.1413   -5.2398 H         1 UNK         0.3093 
     90 H90        26.2061   -1.6082   -6.9876 H         1 UNK         0.0818 
     91 H91        27.3489   -4.2169   -5.8652 H         1 UNK         0.0819 
     92 H92        26.2153   -4.0891   -7.2086 H         1 UNK         0.0819 
     93 H93        27.8328   -3.4202   -7.3471 H         1 UNK         0.0819 
     94 H94        25.2724   -3.3106   -4.7903 H         1 UNK         0.3041 
     95 H95        22.8906   -1.0635   -3.5822 H         1 UNK         0.0784 
     96 H96        21.6980   -1.2690   -5.7585 H         1 UNK         0.0793 
     97 H97        22.0776   -2.9839   -5.8317 H         1 UNK         0.0793 
     98 H98        21.0124   -2.3629   -4.5695 H         1 UNK         0.0793 
     99 H99        23.0334   -3.9802   -3.7911 H         1 UNK         0.3024 
    100 H100       23.8680   -4.3332   -0.5154 H         1 UNK         0.1171 
    101 H101       23.5282   -6.5397   -1.5769 H         1 UNK         0.0786 
    102 H102       22.3219   -5.4098   -2.1556 H         1 UNK         0.0786 
    103 H103       23.6838   -5.8510   -3.1846 H         1 UNK         0.0786 
    104 H104       26.0257   -4.8517   -0.5663 H         1 UNK         0.2977 
    105 H105       28.6050    3.3802   -4.6396 H         1 UNK         0.3127 
    106 H106       30.3203    3.5052   -6.9231 H         1 UNK         0.0770 
    107 H107       28.8101    5.7102   -5.4177 H         1 UNK         0.0814 
    108 H108       30.1244    5.9644   -6.5565 H         1 UNK         0.0814 
    109 H109       30.4354    5.1293   -5.0460 H         1 UNK         0.0814 
    110 H110       26.9916    3.0397   -6.8481 H         1 UNK         0.2983 
    111 H111       25.9885    4.5290   -9.0474 H         1 UNK         0.0947 
    112 H112       24.2525    2.7157   -9.0927 H         1 UNK         0.0806 
    113 H113       24.5236    3.3031   -7.4603 H         1 UNK         0.0806 
    114 H114       25.2084    1.7596   -7.9694 H         1 UNK         0.0806 
    115 H115       26.8030    4.5311  -11.0295 H         1 UNK         0.3000 
    116 H116       27.8598    4.0812  -12.9137 H         1 UNK         0.0850 
    117 H117       27.4920    1.9326  -14.0601 H         1 UNK         0.0810 
    118 H118       26.0072    2.4140  -13.2589 H         1 UNK         0.0810 
    119 H119       27.0220    1.1539  -12.5575 H         1 UNK         0.0810 
    120 H120       29.3014    3.7977  -10.2899 H         1 UNK         0.3040 
    121 H121       31.2332    3.3043   -9.3780 H         1 UNK         0.0766 
    122 H122       32.1325    4.5997  -11.3218 H         1 UNK         0.0812 
    123 H123       32.3385    3.1011  -12.2282 H         1 UNK         0.0812 
    124 H124       33.2718    3.3858  -10.7666 H         1 UNK         0.0812 
    125 H125       29.4505    1.1101   -9.6053 H         1 UNK         0.3205 
    126 H126       30.6740   -1.2507  -10.5551 H         1 UNK         0.0754 
    127 H127       28.8593   -2.4022   -9.2874 H         1 UNK         0.0769 
    128 H128       28.2416   -1.0576  -10.2324 H         1 UNK         0.0769 
    129 H129       28.4382   -0.8890   -8.4919 H         1 UNK         0.0769 
    130 H130       30.2620   -0.1815   -7.1501 H         1 UNK         0.2981 
    131 H131       31.1069   -0.8690   -5.2319 H         1 UNK         0.0541 
    132 H132       31.1312   -4.4341   -5.5625 H         1 UNK         0.3459 
    133 H133       30.0677   -3.0226   -5.6142 H         1 UNK         0.3459 
    134 H134       33.7512   -0.6601   -5.1646 H         1 UNK         0.0612 
    135 H135       33.5959   -0.1906   -6.8299 H         1 UNK         0.0612 
    136 H136       33.0551    2.4114   -3.2009 H         1 UNK         0.0624 
    137 H137       34.0095    0.9737   -3.4346 H         1 UNK         0.0624 
@<TRIPOS>BOND
     1    1    2 1    
     2    1   72 1    
     3    1   73 1    
     4    1   74 1    
     5    2    3 2    
     6    2    4 am   BACKBONE|DICT|INTERRES
     7    4    5 1    
     8    4   75 1    
     9    5    6 1    
    10    5   35 1    
    11    5   76 1    
    12    6    7 1    
    13    6   77 1    
    14    6   78 1    
    15    7    8 1    
    16    8    9 1    
    17    8   79 1    
    18    8   80 1    
    19    9   10 ar   
    20    9   14 ar   
    21   10   11 ar   
    22   10   81 1    
    23   11   12 ar   
    24   11   71 1    
    25   12   13 ar   
    26   12   82 1    
    27   13   14 ar   
    28   13   15 1    
    29   14   83 1    
    30   15   16 1    
    31   15   84 1    
    32   15   85 1    
    33   16   17 1    
    34   17   18 1    
    35   17   86 1    
    36   17   87 1    
    37   18   19 1    
    38   18   37 1    
    39   18   88 1    
    40   19   20 am   BACKBONE|DICT|INTERRES
    41   19   89 1    
    42   20   21 2    
    43   20   22 1    
    44   22   23 1    
    45   22   24 1    
    46   22   90 1    
    47   23   91 1    
    48   23   92 1    
    49   23   93 1    
    50   24   25 am   BACKBONE|DICT|INTERRES
    51   24   94 1    
    52   25   26 2    
    53   25   27 1    
    54   27   28 1    
    55   27   29 1    
    56   27   95 1    
    57   28   96 1    
    58   28   97 1    
    59   28   98 1    
    60   29   30 am   BACKBONE|DICT|INTERRES
    61   29   99 1    
    62   30   31 2    
    63   30   32 1    
    64   32   33 1    
    65   32   34 1    
    66   32  100 1    
    67   33  101 1    
    68   33  102 1    
    69   33  103 1    
    70   34   35 am   BACKBONE|DICT|INTERRES
    71   34  104 1    
    72   35   36 2    
    73   37   38 2    
    74   37   39 am   BACKBONE|DICT|INTERRES
    75   39   40 1    
    76   39  105 1    
    77   40   41 1    
    78   40   42 1    
    79   40  106 1    
    80   41  107 1    
    81   41  108 1    
    82   41  109 1    
    83   42   43 2    
    84   42   44 am   BACKBONE|DICT|INTERRES
    85   44   45 1    
    86   44  110 1    
    87   45   46 1    
    88   45   47 1    
    89   45  111 1    
    90   46  112 1    
    91   46  113 1    
    92   46  114 1    
    93   47   48 2    
    94   47   49 am   BACKBONE|DICT|INTERRES
    95   49   50 1    
    96   49  115 1    
    97   50   51 1    
    98   50   52 1    
    99   50  116 1    
   100   51  117 1    
   101   51  118 1    
   102   51  119 1    
   103   52   53 2    
   104   52   54 am   BACKBONE|DICT|INTERRES
   105   54   55 1    
   106   54  120 1    
   107   55   56 1    
   108   55   57 1    
   109   55  121 1    
   110   56  122 1    
   111   56  123 1    
   112   56  124 1    
   113   57   58 2    
   114   57   59 am   BACKBONE|DICT|INTERRES
   115   59   60 1    
   116   59  125 1    
   117   60   61 1    
   118   60   62 1    
   119   60  126 1    
   120   61  127 1    
   121   61  128 1    
   122   61  129 1    
   123   62   63 2    
   124   62   64 am   BACKBONE|DICT|INTERRES
   125   64   65 1    
   126   64  130 1    
   127   65   66 1    
   128   65   69 1    
   129   65  131 1    
   130   66   67 am   BACKBONE|DICT|INTERRES
   131   66   68 2    
   132   67  132 1    
   133   67  133 1    
   134   69   70 1    
   135   69  134 1    
   136   69  135 1    
   137   70   71 1    
   138   71  136 1    
   139   71  137 1    
@<TRIPOS>SUBSTRUCTURE
     1 UNK         1 GROUP             0       ****    0 ROOT    
