@<TRIPOS>MOLECULE
3R137
137   139    1
SMALL
USER_CHARGES


@<TRIPOS>ATOM
      1 CA         25.2420   -8.4747   -1.3419 C.3       0 UNK        -0.2020 
      2 C          25.5840   -6.9932   -1.2925 C.2       0 UNK         0.4855 
      3 O          25.4717   -6.3746   -0.2341 O.2       0 UNK        -0.5197 
      4 N          26.0022   -6.4193   -2.4292 N.am      1 UNK        -0.4892 
      5 CA         26.3560   -5.0003   -2.5693 C.3       1 UNK         0.0835 
      6 C6         27.1572   -4.7564   -3.8754 C.3       12 UNK        -0.0855 
      7 S7         28.1109   -3.2020   -3.8388 S.3       12 UNK        -0.2931 
      8 C8         29.8110   -3.8272   -3.6721 C.3       12 UNK         0.0378 
      9 C9         30.7965   -2.7031   -3.3869 C.ar      12 UNK        -0.0802 
     10 C10        31.7557   -2.3293   -4.3359 C.ar      12 UNK        -0.0944 
     11 C11        32.6924   -1.3309   -4.0426 C.ar      12 UNK        -0.0787 
     12 C12        32.6511   -0.6975   -2.7965 C.ar      12 UNK        -0.0862 
     13 C13        31.6799   -1.0411   -1.8547 C.ar      12 UNK        -0.0733 
     14 C14        30.7648   -2.0545   -2.1490 C.ar      12 UNK        -0.0832 
     15 C15        31.6122   -0.3086   -0.5246 C.3       12 UNK         0.0240 
     16 S16        30.1451    0.7633   -0.4283 S.3       12 UNK        -0.2522 
     17 C17        30.4424    1.9634   -1.7775 C.3       12 UNK        -0.0967 
     18 CA         29.6897    1.6295   -3.0995 C.3       5 UNK         0.0660 
     19 N          28.2766    1.3249   -2.8455 N.am      5 UNK        -0.4015 
     20 C          27.4453    0.6600   -3.6568 C.2       4 UNK         0.4946 
     21 O          27.7583    0.2802   -4.7866 O.2       4 UNK        -0.5353 
     22 CA         26.0488    0.3667   -3.0766 C.3       4 UNK         0.0277 
     23 CB         25.2704    1.6613   -2.7531 C.3       4 UNK        -0.1981 
     24 N          25.2546   -0.5471   -3.9073 N.am      4 UNK        -0.4209 
     25 C          24.6932   -0.3140   -5.1058 C.2       3 UNK         0.4942 
     26 O          24.7032    0.7773   -5.6770 O.2       3 UNK        -0.5208 
     27 CA         23.9791   -1.4947   -5.7980 C.3       3 UNK         0.0250 
     28 CB         24.8317   -2.0355   -6.9569 C.3       3 UNK        -0.1990 
     29 N          23.6598   -2.6078   -4.9028 N.am      3 UNK        -0.4232 
     30 C          22.7320   -2.5943   -3.9357 C.2       2 UNK         0.4993 
     31 O          21.9481   -1.6635   -3.7493 O.2       2 UNK        -0.5286 
     32 CA         22.6924   -3.8189   -2.9999 C.3       2 UNK         0.0209 
     33 CB         21.5610   -4.7759   -3.4094 C.3       2 UNK        -0.1931 
     34 N          23.9578   -4.5651   -2.9417 N.am      2 UNK        -0.4546 
     35 C          25.1212   -4.0744   -2.4841 C.2       1 UNK         0.5154 
     36 O          25.2406   -2.9331   -2.0362 O.2       1 UNK        -0.5181 
     37 C          29.8444    2.7521   -4.1542 C.2       5 UNK         0.5014 
     38 O          30.3417    3.8339   -3.8333 O.2       5 UNK        -0.5248 
     39 N          29.3703    2.5024   -5.3790 N.am      6 UNK        -0.4434 
     40 CA         29.2618    3.4740   -6.4636 C.3       6 UNK         0.0363 
     41 CB         27.8893    4.1702   -6.3627 C.3       6 UNK        -0.1936 
     42 C          29.4499    2.7909   -7.8251 C.2       6 UNK         0.5081 
     43 O          29.6688    1.5782   -7.8970 O.2       6 UNK        -0.5248 
     44 N          29.3370    3.5855   -8.8989 N.am      7 UNK        -0.4718 
     45 CA         29.4657    3.1658  -10.3005 C.3       7 UNK         0.0273 
     46 CB         29.3132    4.3916  -11.2140 C.3       7 UNK        -0.1935 
     47 C          28.4976    2.0496  -10.7318 C.2       7 UNK         0.5018 
     48 O          28.8391    1.2781  -11.6273 O.2       7 UNK        -0.5186 
     49 N          27.3481    1.9319  -10.0522 N.am      8 UNK        -0.4240 
     50 CA         26.3920    0.8302  -10.2037 C.3       8 UNK         0.0235 
     51 CB         25.1394    1.1318   -9.3661 C.3       8 UNK        -0.2000 
     52 C          26.9736   -0.5515   -9.8379 C.2       8 UNK         0.4941 
     53 O          26.5269   -1.5531  -10.3969 O.2       8 UNK        -0.5273 
     54 N          27.9714   -0.5800   -8.9426 N.am      9 UNK        -0.4262 
     55 CA         28.7517   -1.7650   -8.5768 C.3       9 UNK         0.0264 
     56 CB         28.9227   -1.7853   -7.0490 C.3       9 UNK        -0.1955 
     57 C          30.1271   -1.7824   -9.2720 C.2       9 UNK         0.5031 
     58 O          30.9864   -2.5703   -8.8740 O.2       9 UNK        -0.5390 
     59 N          30.3309   -0.9006  -10.2652 N.am      10 UNK        -0.4204 
     60 CA         31.5859   -0.6219  -10.9744 C.3       10 UNK         0.0237 
     61 CB         32.0642   -1.8537  -11.7734 C.3       10 UNK        -0.1985 
     62 C          32.6870   -0.0270  -10.0716 C.2       10 UNK         0.4970 
     63 O          33.8663   -0.1297  -10.4132 O.2       10 UNK        -0.4914 
     64 N          32.2947    0.6027   -8.9544 N.am      11 UNK        -0.4285 
     65 CA         33.1989    1.2362   -7.9833 C.3       11 UNK         0.1007 
     66 C          33.6255    2.6902   -8.3528 C.2       11 UNK         0.5703 
     67 N          33.2176    3.2372   -9.4921 N.am      11 UNK        -0.7361 
     68 O          34.3525    3.3352   -7.6018 O.2       11 UNK        -0.4986 
     69 C69        32.6270    1.1225   -6.5414 C.3       12 UNK        -0.0947 
     70 S70        33.9386    0.8247   -5.3140 S.3       12 UNK        -0.2240 
     71 C71        33.7826   -0.9722   -5.0460 C.3       12 UNK         0.0194 
     72 H72        25.8679   -9.0275   -0.6418 H         1 UNK         0.0906 
     73 H73        24.2002   -8.6286   -1.0618 H         1 UNK         0.0906 
     74 H74        25.3916   -8.8965   -2.3356 H         1 UNK         0.0906 
     75 H75        26.0865   -6.9826   -3.2644 H         1 UNK         0.3140 
     76 H76        26.9994   -4.7466   -1.7231 H         1 UNK         0.1085 
     77 H77        26.5019   -4.7476   -4.7485 H         1 UNK         0.0836 
     78 H78        27.8540   -5.5790   -4.0449 H         1 UNK         0.0836 
     79 H79        30.0863   -4.3627   -4.5822 H         1 UNK         0.0731 
     80 H80        29.8533   -4.5526   -2.8581 H         1 UNK         0.0731 
     81 H81        31.7866   -2.8301   -5.2941 H         1 UNK         0.1312 
     82 H82        33.3736    0.0728   -2.5639 H         1 UNK         0.1406 
     83 H83        30.0150   -2.3287   -1.4190 H         1 UNK         0.1631 
     84 H84        32.5089    0.2905   -0.3580 H         1 UNK         0.0717 
     85 H85        31.5739   -1.0365    0.2870 H         1 UNK         0.0717 
     86 H86        30.1329    2.9398   -1.3991 H         1 UNK         0.0934 
     87 H87        31.5152    2.0436   -1.9625 H         1 UNK         0.0934 
     88 H88        30.1466    0.7342   -3.5265 H         1 UNK         0.0739 
     89 H89        27.9401    1.6012   -1.9353 H         1 UNK         0.3093 
     90 H90        26.2095   -0.1707   -2.1404 H         1 UNK         0.0818 
     91 H91        25.7591    2.2319   -1.9631 H         1 UNK         0.0819 
     92 H92        25.1923    2.3171   -3.6209 H         1 UNK         0.0819 
     93 H93        24.2601    1.4401   -2.4088 H         1 UNK         0.0819 
     94 H94        25.1932   -1.4879   -3.5341 H         1 UNK         0.3041 
     95 H95        23.0439   -1.1089   -6.2094 H         1 UNK         0.0784 
     96 H96        25.1257   -1.2334   -7.6323 H         1 UNK         0.0793 
     97 H97        25.7462   -2.5081   -6.5979 H         1 UNK         0.0793 
     98 H98        24.2830   -2.7691   -7.5475 H         1 UNK         0.0793 
     99 H99        24.2368   -3.4311   -4.9860 H         1 UNK         0.3024 
    100 H100       22.4817   -3.4448   -1.9953 H         1 UNK         0.1171 
    101 H101       21.7283   -5.1993   -4.4006 H         1 UNK         0.0786 
    102 H102       21.4623   -5.6002   -2.7028 H         1 UNK         0.0786 
    103 H103       20.6012   -4.2575   -3.4345 H         1 UNK         0.0786 
    104 H104       23.9421   -5.5191   -3.2731 H         1 UNK         0.2977 
    105 H105       28.9598    1.5871   -5.5593 H         1 UNK         0.3127 
    106 H106       30.0552    4.2183   -6.3683 H         1 UNK         0.0770 
    107 H107       27.7709    4.9489   -7.1165 H         1 UNK         0.0814 
    108 H108       27.7616    4.6505   -5.3924 H         1 UNK         0.0814 
    109 H109       27.0704    3.4601   -6.4892 H         1 UNK         0.0814 
    110 H110       29.1621    4.5689   -8.7476 H         1 UNK         0.2983 
    111 H111       30.4744    2.7708  -10.4283 H         1 UNK         0.0947 
    112 H112       29.4281    4.1145  -12.2631 H         1 UNK         0.0806 
    113 H113       30.0702    5.1456  -10.9972 H         1 UNK         0.0806 
    114 H114       28.3327    4.8570  -11.1056 H         1 UNK         0.0806 
    115 H115       27.1520    2.6116   -9.3322 H         1 UNK         0.3000 
    116 H116       26.0993    0.7897  -11.2551 H         1 UNK         0.0850 
    117 H117       25.3759    1.2184   -8.3048 H         1 UNK         0.0810 
    118 H118       24.3973    0.3394   -9.4725 H         1 UNK         0.0810 
    119 H119       24.6644    2.0610   -9.6811 H         1 UNK         0.0810 
    120 H120       28.2995    0.2927   -8.5380 H         1 UNK         0.3040 
    121 H121       28.2232   -2.6730   -8.8735 H         1 UNK         0.0766 
    122 H122       27.9607   -1.7406   -6.5412 H         1 UNK         0.0812 
    123 H123       29.5200   -0.9439   -6.6950 H         1 UNK         0.0812 
    124 H124       29.4182   -2.6981   -6.7171 H         1 UNK         0.0812 
    125 H125       29.5536   -0.3103  -10.5425 H         1 UNK         0.3205 
    126 H126       31.3494    0.1583  -11.6990 H         1 UNK         0.0754 
    127 H127       32.8958   -1.5960  -12.4303 H         1 UNK         0.0769 
    128 H128       31.2683   -2.2511  -12.4033 H         1 UNK         0.0769 
    129 H129       32.4066   -2.6555  -11.1186 H         1 UNK         0.0769 
    130 H130       31.3067    0.6822   -8.7406 H         1 UNK         0.2981 
    131 H131       34.1266    0.6617   -8.0114 H         1 UNK         0.0541 
    132 H132       33.5102    4.1747   -9.7178 H         1 UNK         0.3459 
    133 H133       32.6646    2.7086  -10.1438 H         1 UNK         0.3459 
    134 H134       31.9026    0.3090   -6.4680 H         1 UNK         0.0612 
    135 H135       32.0803    2.0228   -6.2583 H         1 UNK         0.0612 
    136 H136       34.7338   -1.3482   -4.6675 H         1 UNK         0.0624 
    137 H137       33.6157   -1.4662   -6.0048 H         1 UNK         0.0624 
@<TRIPOS>BOND
     1    1    2 1    
     2    1   72 1    
     3    1   73 1    
     4    1   74 1    
     5    2    3 2    
     6    2    4 am   BACKBONE|DICT|INTERRES
     7    4    5 1    
     8    4   75 1    
     9    5    6 1    
    10    5   35 1    
    11    5   76 1    
    12    6    7 1    
    13    6   77 1    
    14    6   78 1    
    15    7    8 1    
    16    8    9 1    
    17    8   79 1    
    18    8   80 1    
    19    9   10 ar   
    20    9   14 ar   
    21   10   11 ar   
    22   10   81 1    
    23   11   12 ar   
    24   11   71 1    
    25   12   13 ar   
    26   12   82 1    
    27   13   14 ar   
    28   13   15 1    
    29   14   83 1    
    30   15   16 1    
    31   15   84 1    
    32   15   85 1    
    33   16   17 1    
    34   17   18 1    
    35   17   86 1    
    36   17   87 1    
    37   18   19 1    
    38   18   37 1    
    39   18   88 1    
    40   19   20 am   BACKBONE|DICT|INTERRES
    41   19   89 1    
    42   20   21 2    
    43   20   22 1    
    44   22   23 1    
    45   22   24 1    
    46   22   90 1    
    47   23   91 1    
    48   23   92 1    
    49   23   93 1    
    50   24   25 am   BACKBONE|DICT|INTERRES
    51   24   94 1    
    52   25   26 2    
    53   25   27 1    
    54   27   28 1    
    55   27   29 1    
    56   27   95 1    
    57   28   96 1    
    58   28   97 1    
    59   28   98 1    
    60   29   30 am   BACKBONE|DICT|INTERRES
    61   29   99 1    
    62   30   31 2    
    63   30   32 1    
    64   32   33 1    
    65   32   34 1    
    66   32  100 1    
    67   33  101 1    
    68   33  102 1    
    69   33  103 1    
    70   34   35 am   BACKBONE|DICT|INTERRES
    71   34  104 1    
    72   35   36 2    
    73   37   38 2    
    74   37   39 am   BACKBONE|DICT|INTERRES
    75   39   40 1    
    76   39  105 1    
    77   40   41 1    
    78   40   42 1    
    79   40  106 1    
    80   41  107 1    
    81   41  108 1    
    82   41  109 1    
    83   42   43 2    
    84   42   44 am   BACKBONE|DICT|INTERRES
    85   44   45 1    
    86   44  110 1    
    87   45   46 1    
    88   45   47 1    
    89   45  111 1    
    90   46  112 1    
    91   46  113 1    
    92   46  114 1    
    93   47   48 2    
    94   47   49 am   BACKBONE|DICT|INTERRES
    95   49   50 1    
    96   49  115 1    
    97   50   51 1    
    98   50   52 1    
    99   50  116 1    
   100   51  117 1    
   101   51  118 1    
   102   51  119 1    
   103   52   53 2    
   104   52   54 am   BACKBONE|DICT|INTERRES
   105   54   55 1    
   106   54  120 1    
   107   55   56 1    
   108   55   57 1    
   109   55  121 1    
   110   56  122 1    
   111   56  123 1    
   112   56  124 1    
   113   57   58 2    
   114   57   59 am   BACKBONE|DICT|INTERRES
   115   59   60 1    
   116   59  125 1    
   117   60   61 1    
   118   60   62 1    
   119   60  126 1    
   120   61  127 1    
   121   61  128 1    
   122   61  129 1    
   123   62   63 2    
   124   62   64 am   BACKBONE|DICT|INTERRES
   125   64   65 1    
   126   64  130 1    
   127   65   66 1    
   128   65   69 1    
   129   65  131 1    
   130   66   67 am   BACKBONE|DICT|INTERRES
   131   66   68 2    
   132   67  132 1    
   133   67  133 1    
   134   69   70 1    
   135   69  134 1    
   136   69  135 1    
   137   70   71 1    
   138   71  136 1    
   139   71  137 1    
@<TRIPOS>SUBSTRUCTURE
     1 UNK         1 GROUP             0       ****    0 ROOT    
