@<TRIPOS>MOLECULE
3R137
137   139    1
SMALL
USER_CHARGES


@<TRIPOS>ATOM
      1 CA         24.9199   -2.9872    0.4062 C.3       0 UNK        -0.2020 
      2 C          25.4972   -1.7301   -0.2256 C.2       0 UNK         0.4855 
      3 O          24.7892   -0.7323   -0.3626 O.2       0 UNK        -0.5197 
      4 N          26.7756   -1.7770   -0.6230 N.am      1 UNK        -0.4892 
      5 CA         27.5227   -0.7010   -1.2863 C.3       1 UNK         0.0835 
      6 C6         28.9968   -1.1294   -1.4873 C.3       12 UNK        -0.0855 
      7 S7         30.1503    0.2482   -1.8242 S.3       12 UNK        -0.2931 
      8 C8         30.3918    0.1861   -3.6323 C.3       12 UNK         0.0378 
      9 C9         30.8915   -1.1652   -4.1257 C.ar      12 UNK        -0.0802 
     10 C10        32.2444   -1.5120   -4.0502 C.ar      12 UNK        -0.0944 
     11 C11        32.6812   -2.7668   -4.4944 C.ar      12 UNK        -0.0787 
     12 C12        31.7508   -3.6664   -5.0316 C.ar      12 UNK        -0.0862 
     13 C13        30.4012   -3.3212   -5.1296 C.ar      12 UNK        -0.0733 
     14 C14        29.9819   -2.0757   -4.6640 C.ar      12 UNK        -0.0832 
     15 C15        29.3827   -4.3101   -5.6769 C.3       12 UNK         0.0240 
     16 S16        29.0013   -4.0677   -7.4452 S.3       12 UNK        -0.2522 
     17 C17        28.2058   -2.4232   -7.5257 C.3       12 UNK        -0.0967 
     18 CA         26.6761   -2.4229   -7.2565 C.3       5 UNK         0.0660 
     19 N          26.3041   -2.8141   -5.8957 N.am      5 UNK        -0.4015 
     20 C          25.6512   -3.9411   -5.5779 C.2       4 UNK         0.4946 
     21 O          25.3843   -4.8333   -6.3840 O.2       4 UNK        -0.5353 
     22 CA         25.1887   -4.0976   -4.1213 C.3       4 UNK         0.0277 
     23 CB         26.3614   -4.4303   -3.1826 C.3       4 UNK        -0.1981 
     24 N          24.4978   -2.8957   -3.6538 N.am      4 UNK        -0.4209 
     25 C          23.1782   -2.6845   -3.7775 C.2       3 UNK         0.4942 
     26 O          22.4023   -3.5012   -4.2752 O.2       3 UNK        -0.5208 
     27 CA         22.6079   -1.3542   -3.2505 C.3       3 UNK         0.0250 
     28 CB         21.8410   -1.5722   -1.9357 C.3       3 UNK        -0.1990 
     29 N          23.6420   -0.3371   -3.0481 N.am      3 UNK        -0.4232 
     30 C          24.1155    0.4462   -4.0279 C.2       2 UNK         0.4993 
     31 O          23.6469    0.4651   -5.1654 O.2       2 UNK        -0.5286 
     32 CA         25.3134    1.3561   -3.6965 C.3       2 UNK         0.0209 
     33 CB         24.8181    2.7679   -3.3432 C.3       2 UNK        -0.1931 
     34 N          26.1649    0.8641   -2.6067 N.am      2 UNK        -0.4546 
     35 C          26.8300   -0.2995   -2.6075 C.2       1 UNK         0.5154 
     36 O          26.8316   -1.0823   -3.5608 O.2       1 UNK        -0.5181 
     37 C          26.1031   -1.0151   -7.4567 C.2       5 UNK         0.5014 
     38 O          26.5068   -0.0979   -6.7379 O.2       5 UNK        -0.5248 
     39 N          25.2017   -0.8630   -8.4376 N.am      6 UNK        -0.4434 
     40 CA         24.4552    0.3683   -8.7357 C.3       6 UNK         0.0363 
     41 CB         23.4536    0.0852   -9.8675 C.3       6 UNK        -0.1936 
     42 C          25.3177    1.5978   -9.0803 C.2       6 UNK         0.5081 
     43 O          24.8350    2.7239   -8.9582 O.2       6 UNK        -0.5248 
     44 N          26.5733    1.3706   -9.4901 N.am      7 UNK        -0.4718 
     45 CA         27.5821    2.4086   -9.7122 C.3       7 UNK         0.0273 
     46 CB         28.7964    1.7842  -10.4206 C.3       7 UNK        -0.1935 
     47 C          28.0306    3.1193   -8.4207 C.2       7 UNK         0.5018 
     48 O          28.5096    4.2502   -8.5083 O.2       7 UNK        -0.5186 
     49 N          27.8929    2.4457   -7.2638 N.am      8 UNK        -0.4240 
     50 CA         28.2818    2.8945   -5.9173 C.3       8 UNK         0.0235 
     51 CB         27.4125    4.0904   -5.4761 C.3       8 UNK        -0.2000 
     52 C          29.7899    3.1816   -5.7526 C.2       8 UNK         0.4941 
     53 O          30.1778    3.8949   -4.8261 O.2       8 UNK        -0.5273 
     54 N          30.6107    2.6186   -6.6444 N.am      9 UNK        -0.4262 
     55 CA         32.0459    2.8256   -6.7982 C.3       9 UNK         0.0264 
     56 CB         32.3380    4.2861   -7.2133 C.3       9 UNK        -0.1955 
     57 C          32.5351    1.8323   -7.8634 C.2       9 UNK         0.5031 
     58 O          31.7539    0.9906   -8.3194 O.2       9 UNK        -0.5390 
     59 N          33.8162    1.9418   -8.2405 N.am      10 UNK        -0.4204 
     60 CA         34.5328    1.2022   -9.2932 C.3       10 UNK         0.0237 
     61 CB         33.8698    1.3958  -10.6723 C.3       10 UNK        -0.1985 
     62 C          34.7772   -0.2903   -9.0045 C.2       10 UNK         0.4970 
     63 O          35.8269   -0.7993   -9.3993 O.2       10 UNK        -0.4914 
     64 N          33.8386   -0.9551   -8.3191 N.am      11 UNK        -0.4285 
     65 CA         33.9021   -2.3695   -7.9157 C.3       11 UNK         0.1007 
     66 C          33.7975   -3.3779   -9.1041 C.2       11 UNK         0.5703 
     67 N          33.2597   -2.9801  -10.2519 N.am      11 UNK        -0.7361 
     68 O          34.1844   -4.5384   -8.9917 O.2       11 UNK        -0.4986 
     69 C69        35.0977   -2.6316   -6.9500 C.3       12 UNK        -0.0947 
     70 S70        34.8371   -4.0151   -5.7925 S.3       12 UNK        -0.2240 
     71 C71        34.1456   -3.1657   -4.3333 C.3       12 UNK         0.0194 
     72 H72        24.2442   -3.4820   -0.2907 H         1 UNK         0.0906 
     73 H73        24.3582   -2.7326    1.3047 H         1 UNK         0.0906 
     74 H74        25.6990   -3.6959    0.6861 H         1 UNK         0.0906 
     75 H75        27.2911   -2.6349   -0.4872 H         1 UNK         0.3140 
     76 H76        27.5100    0.1575   -0.6112 H         1 UNK         0.1085 
     77 H77        29.3610   -1.5858   -0.5654 H         1 UNK         0.0836 
     78 H78        29.0777   -1.9185   -2.2318 H         1 UNK         0.0836 
     79 H79        31.1034    0.9620   -3.9183 H         1 UNK         0.0731 
     80 H80        29.4522    0.4423   -4.1227 H         1 UNK         0.0731 
     81 H81        32.9502   -0.8131   -3.6224 H         1 UNK         0.1312 
     82 H82        32.0752   -4.6430   -5.3638 H         1 UNK         0.1406 
     83 H83        28.9341   -1.8175   -4.7049 H         1 UNK         0.1631 
     84 H84        28.4687   -4.2561   -5.0916 H         1 UNK         0.0717 
     85 H85        29.7523   -5.3282   -5.5459 H         1 UNK         0.0717 
     86 H86        28.7283   -1.7090   -6.8944 H         1 UNK         0.0934 
     87 H87        28.3855   -2.0628   -8.5405 H         1 UNK         0.0934 
     88 H88        26.2066   -3.0908   -7.9819 H         1 UNK         0.0739 
     89 H89        26.4547   -2.1050   -5.1813 H         1 UNK         0.3093 
     90 H90        24.4986   -4.9437   -4.0846 H         1 UNK         0.0818 
     91 H91        26.0135   -4.5967   -2.1633 H         1 UNK         0.0819 
     92 H92        26.8652   -5.3435   -3.5017 H         1 UNK         0.0819 
     93 H93        27.1091   -3.6383   -3.1542 H         1 UNK         0.0819 
     94 H94        25.0845   -2.1448   -3.3110 H         1 UNK         0.3041 
     95 H95        21.8930   -0.9924   -3.9929 H         1 UNK         0.0784 
     96 H96        21.0258   -2.2838   -2.0736 H         1 UNK         0.0793 
     97 H97        22.4835   -1.9646   -1.1483 H         1 UNK         0.0793 
     98 H98        21.4005   -0.6424   -1.5754 H         1 UNK         0.0793 
     99 H99        24.0648   -0.2900   -2.1239 H         1 UNK         0.3024 
    100 H100       25.9234    1.4113   -4.5993 H         1 UNK         0.1171 
    101 H101       25.6471    3.4451   -3.1403 H         1 UNK         0.0786 
    102 H102       24.2431    3.1958   -4.1657 H         1 UNK         0.0786 
    103 H103       24.1722    2.7595   -2.4642 H         1 UNK         0.0786 
    104 H104       26.1699    1.4184   -1.7621 H         1 UNK         0.2977 
    105 H105       24.9485   -1.6734   -8.9851 H         1 UNK         0.3127 
    106 H106       23.8894    0.6257   -7.8384 H         1 UNK         0.0770 
    107 H107       23.9580   -0.2118  -10.7879 H         1 UNK         0.0814 
    108 H108       22.8590    0.9716  -10.0941 H         1 UNK         0.0814 
    109 H109       22.7557   -0.7061   -9.5934 H         1 UNK         0.0814 
    110 H110       26.8753    0.4120   -9.5805 H         1 UNK         0.2983 
    111 H111       27.1500    3.1672  -10.3688 H         1 UNK         0.0947 
    112 H112       29.2597    1.0014   -9.8181 H         1 UNK         0.0806 
    113 H113       29.5630    2.5353  -10.6175 H         1 UNK         0.0806 
    114 H114       28.5175    1.3500  -11.3807 H         1 UNK         0.0806 
    115 H115       27.4565    1.5272   -7.2957 H         1 UNK         0.3000 
    116 H116       28.0642    2.0603   -5.2506 H         1 UNK         0.0850 
    117 H117       26.3519    3.8840   -5.6170 H         1 UNK         0.0810 
    118 H118       27.6532    4.9928   -6.0389 H         1 UNK         0.0810 
    119 H119       27.5654    4.3180   -4.4207 H         1 UNK         0.0810 
    120 H120       30.2297    1.9898   -7.3422 H         1 UNK         0.3040 
    121 H121       32.5406    2.5953   -5.8528 H         1 UNK         0.0766 
    122 H122       33.4071    4.4728   -7.3159 H         1 UNK         0.0812 
    123 H123       31.9712    4.9977   -6.4739 H         1 UNK         0.0812 
    124 H124       31.8680    4.5310   -8.1669 H         1 UNK         0.0812 
    125 H125       34.3777    2.6339   -7.7633 H         1 UNK         0.3205 
    126 H126       35.5202    1.6641   -9.3449 H         1 UNK         0.0754 
    127 H127       34.4701    0.9380  -11.4598 H         1 UNK         0.0769 
    128 H128       33.7672    2.4530  -10.9175 H         1 UNK         0.0769 
    129 H129       32.8786    0.9438  -10.7191 H         1 UNK         0.0769 
    130 H130       32.9769   -0.4594   -8.1086 H         1 UNK         0.2981 
    131 H131       32.9830   -2.5220   -7.3511 H         1 UNK         0.0541 
    132 H132       33.1871   -3.6340  -11.0151 H         1 UNK         0.3459 
    133 H133       32.9257   -2.0361  -10.3597 H         1 UNK         0.3459 
    134 H134       36.0117   -2.8227   -7.5147 H         1 UNK         0.0612 
    135 H135       35.3044   -1.7407   -6.3550 H         1 UNK         0.0612 
    136 H136       34.7644   -2.2991   -4.0958 H         1 UNK         0.0624 
    137 H137       34.2212   -3.8387   -3.4786 H         1 UNK         0.0624 
@<TRIPOS>BOND
     1    1    2 1    
     2    1   72 1    
     3    1   73 1    
     4    1   74 1    
     5    2    3 2    
     6    2    4 am   BACKBONE|DICT|INTERRES
     7    4    5 1    
     8    4   75 1    
     9    5    6 1    
    10    5   35 1    
    11    5   76 1    
    12    6    7 1    
    13    6   77 1    
    14    6   78 1    
    15    7    8 1    
    16    8    9 1    
    17    8   79 1    
    18    8   80 1    
    19    9   10 ar   
    20    9   14 ar   
    21   10   11 ar   
    22   10   81 1    
    23   11   12 ar   
    24   11   71 1    
    25   12   13 ar   
    26   12   82 1    
    27   13   14 ar   
    28   13   15 1    
    29   14   83 1    
    30   15   16 1    
    31   15   84 1    
    32   15   85 1    
    33   16   17 1    
    34   17   18 1    
    35   17   86 1    
    36   17   87 1    
    37   18   19 1    
    38   18   37 1    
    39   18   88 1    
    40   19   20 am   BACKBONE|DICT|INTERRES
    41   19   89 1    
    42   20   21 2    
    43   20   22 1    
    44   22   23 1    
    45   22   24 1    
    46   22   90 1    
    47   23   91 1    
    48   23   92 1    
    49   23   93 1    
    50   24   25 am   BACKBONE|DICT|INTERRES
    51   24   94 1    
    52   25   26 2    
    53   25   27 1    
    54   27   28 1    
    55   27   29 1    
    56   27   95 1    
    57   28   96 1    
    58   28   97 1    
    59   28   98 1    
    60   29   30 am   BACKBONE|DICT|INTERRES
    61   29   99 1    
    62   30   31 2    
    63   30   32 1    
    64   32   33 1    
    65   32   34 1    
    66   32  100 1    
    67   33  101 1    
    68   33  102 1    
    69   33  103 1    
    70   34   35 am   BACKBONE|DICT|INTERRES
    71   34  104 1    
    72   35   36 2    
    73   37   38 2    
    74   37   39 am   BACKBONE|DICT|INTERRES
    75   39   40 1    
    76   39  105 1    
    77   40   41 1    
    78   40   42 1    
    79   40  106 1    
    80   41  107 1    
    81   41  108 1    
    82   41  109 1    
    83   42   43 2    
    84   42   44 am   BACKBONE|DICT|INTERRES
    85   44   45 1    
    86   44  110 1    
    87   45   46 1    
    88   45   47 1    
    89   45  111 1    
    90   46  112 1    
    91   46  113 1    
    92   46  114 1    
    93   47   48 2    
    94   47   49 am   BACKBONE|DICT|INTERRES
    95   49   50 1    
    96   49  115 1    
    97   50   51 1    
    98   50   52 1    
    99   50  116 1    
   100   51  117 1    
   101   51  118 1    
   102   51  119 1    
   103   52   53 2    
   104   52   54 am   BACKBONE|DICT|INTERRES
   105   54   55 1    
   106   54  120 1    
   107   55   56 1    
   108   55   57 1    
   109   55  121 1    
   110   56  122 1    
   111   56  123 1    
   112   56  124 1    
   113   57   58 2    
   114   57   59 am   BACKBONE|DICT|INTERRES
   115   59   60 1    
   116   59  125 1    
   117   60   61 1    
   118   60   62 1    
   119   60  126 1    
   120   61  127 1    
   121   61  128 1    
   122   61  129 1    
   123   62   63 2    
   124   62   64 am   BACKBONE|DICT|INTERRES
   125   64   65 1    
   126   64  130 1    
   127   65   66 1    
   128   65   69 1    
   129   65  131 1    
   130   66   67 am   BACKBONE|DICT|INTERRES
   131   66   68 2    
   132   67  132 1    
   133   67  133 1    
   134   69   70 1    
   135   69  134 1    
   136   69  135 1    
   137   70   71 1    
   138   71  136 1    
   139   71  137 1    
@<TRIPOS>SUBSTRUCTURE
     1 UNK         1 GROUP             0       ****    0 ROOT    
