@<TRIPOS>MOLECULE
3R137
137   139    1
SMALL
USER_CHARGES


@<TRIPOS>ATOM
      1 CA         27.1379   -6.2179   -4.8527 C.3       0 UNK        -0.2020 
      2 C          26.9577   -5.9354   -3.3695 C.2       0 UNK         0.4855 
      3 O          25.9943   -6.4149   -2.7715 O.2       0 UNK        -0.5197 
      4 N          27.8844   -5.1771   -2.7674 N.am      1 UNK        -0.4892 
      5 CA         27.9100   -4.8810   -1.3263 C.3       1 UNK         0.0835 
      6 C6         29.2793   -4.3283   -0.8561 C.3       12 UNK        -0.0855 
      7 S7         30.6844   -5.3728   -1.3907 S.3       12 UNK        -0.2931 
      8 C8         32.0305   -4.1622   -1.6269 C.3       12 UNK         0.0378 
      9 C9         31.6473   -3.0353   -2.5769 C.ar      12 UNK        -0.0802 
     10 C10        31.5275   -1.7277   -2.0960 C.ar      12 UNK        -0.0944 
     11 C11        31.1268   -0.6890   -2.9403 C.ar      12 UNK        -0.0787 
     12 C12        30.8329   -0.9755   -4.2782 C.ar      12 UNK        -0.0862 
     13 C13        30.9818   -2.2720   -4.7802 C.ar      12 UNK        -0.0733 
     14 C14        31.3940   -3.2984   -3.9262 C.ar      12 UNK        -0.0832 
     15 C15        30.7114   -2.5566   -6.2499 C.3       12 UNK         0.0240 
     16 S16        29.2124   -3.5595   -6.5173 S.3       12 UNK        -0.2522 
     17 C17        27.8979   -2.5607   -5.7411 C.3       12 UNK        -0.0967 
     18 CA         27.2039   -1.5901   -6.7282 C.3       5 UNK         0.0660 
     19 N          25.8289   -1.2936   -6.3227 N.am      5 UNK        -0.4015 
     20 C          24.9114   -0.7037   -7.1035 C.2       4 UNK         0.4946 
     21 O          25.1107   -0.3938   -8.2771 O.2       4 UNK        -0.5353 
     22 CA         23.5605   -0.3513   -6.4542 C.3       4 UNK         0.0277 
     23 CB         22.5952   -1.5441   -6.5363 C.3       4 UNK        -0.1981 
     24 N          23.6938    0.0787   -5.0596 N.am      4 UNK        -0.4209 
     25 C          24.3735    1.1653   -4.6655 C.2       3 UNK         0.4942 
     26 O          24.8663    1.9760   -5.4487 O.2       3 UNK        -0.5208 
     27 CA         24.5936    1.3561   -3.1528 C.3       3 UNK         0.0250 
     28 CB         23.5475    2.3249   -2.5798 C.3       3 UNK        -0.1990 
     29 N          24.5921    0.1147   -2.3659 N.am      3 UNK        -0.4232 
     30 C          25.4067   -0.9330   -2.5579 C.2       2 UNK         0.4993 
     31 O          26.2383   -0.9989   -3.4687 O.2       2 UNK        -0.5286 
     32 CA         25.2169   -2.1239   -1.6112 C.3       2 UNK         0.0209 
     33 CB         23.8770   -2.8364   -1.8806 C.3       2 UNK        -0.1931 
     34 N          26.3136   -3.0690   -1.8016 N.am      2 UNK        -0.4546 
     35 C          26.7680   -3.9373   -0.8896 C.2       1 UNK         0.5154 
     36 O          26.3187   -4.0198    0.2549 O.2       1 UNK        -0.5181 
     37 C          28.0079   -0.2897   -6.8951 C.2       5 UNK         0.5014 
     38 O          28.7052   -0.1321   -7.8978 O.2       5 UNK        -0.5248 
     39 N          27.8657    0.6345   -5.9325 N.am      6 UNK        -0.4434 
     40 CA         28.4838    1.9638   -5.9586 C.3       6 UNK         0.0363 
     41 CB         28.1796    2.7057   -4.6478 C.3       6 UNK        -0.1936 
     42 C          28.0517    2.8048   -7.1739 C.2       6 UNK         0.5081 
     43 O          28.8750    3.5309   -7.7291 O.2       6 UNK        -0.5248 
     44 N          26.7824    2.6711   -7.5784 N.am      7 UNK        -0.4718 
     45 CA         26.2320    3.2802   -8.7861 C.3       7 UNK         0.0273 
     46 CB         24.6961    3.2740   -8.7084 C.3       7 UNK        -0.1935 
     47 C          26.7219    2.5945  -10.0740 C.2       7 UNK         0.5018 
     48 O          27.1915    3.2862  -10.9785 O.2       7 UNK        -0.5186 
     49 N          26.5675    1.2647  -10.1566 N.am      8 UNK        -0.4240 
     50 CA         26.7908    0.4971  -11.3848 C.3       8 UNK         0.0235 
     51 CB         25.9948   -0.8174  -11.3249 C.3       8 UNK        -0.2000 
     52 C          28.2680    0.2075  -11.6908 C.2       8 UNK         0.4941 
     53 O          28.6823    0.3750  -12.8390 O.2       8 UNK        -0.5273 
     54 N          29.0172   -0.2673  -10.6885 N.am      9 UNK        -0.4262 
     55 CA         30.3803   -0.7858  -10.8454 C.3       9 UNK         0.0264 
     56 CB         30.4468   -2.1942  -10.2311 C.3       9 UNK        -0.1955 
     57 C          31.4447    0.1202  -10.2089 C.2       9 UNK         0.5031 
     58 O          32.5809    0.1122  -10.6856 O.2       9 UNK        -0.5390 
     59 N          31.0594    0.8701   -9.1657 N.am      10 UNK        -0.4204 
     60 CA         31.8805    1.7176   -8.2908 C.3       10 UNK         0.0237 
     61 CB         32.7656    2.7073   -9.0775 C.3       10 UNK        -0.1985 
     62 C          32.6924    0.8997   -7.2719 C.2       10 UNK         0.4970 
     63 O          32.9668   -0.2833   -7.4808 O.2       10 UNK        -0.4914 
     64 N          33.0381    1.5580   -6.1609 N.am      11 UNK        -0.4285 
     65 CA         33.6955    0.9486   -4.9918 C.3       11 UNK         0.1007 
     66 C          35.2330    0.7552   -5.1346 C.2       11 UNK         0.5703 
     67 N          35.8682    1.2244   -6.2022 N.am      11 UNK        -0.7361 
     68 O          35.8622    0.1613   -4.2622 O.2       11 UNK        -0.4986 
     69 C69        33.3362    1.6935   -3.6748 C.3       12 UNK        -0.0947 
     70 S70        31.5513    2.0451   -3.4952 S.3       12 UNK        -0.2240 
     71 C71        30.9867    0.7219   -2.3736 C.3       12 UNK         0.0194 
     72 H72        26.4273   -5.6366   -5.4393 H         1 UNK         0.0906 
     73 H73        28.1454   -5.9780   -5.1899 H         1 UNK         0.0906 
     74 H74        26.9630   -7.2737   -5.0575 H         1 UNK         0.0906 
     75 H75        28.6752   -4.8335   -3.2944 H         1 UNK         0.3140 
     76 H76        27.7441   -5.8261   -0.8038 H         1 UNK         0.1085 
     77 H77        29.3068   -4.2598    0.2332 H         1 UNK         0.0836 
     78 H78        29.4086   -3.3101   -1.2228 H         1 UNK         0.0836 
     79 H79        32.3208   -3.7666   -0.6523 H         1 UNK         0.0731 
     80 H80        32.9072   -4.6792   -2.0197 H         1 UNK         0.0731 
     81 H81        31.7304   -1.5207   -1.0540 H         1 UNK         0.1312 
     82 H82        30.5101   -0.1825   -4.9370 H         1 UNK         0.1406 
     83 H83        31.4963   -4.3060   -4.3064 H         1 UNK         0.1631 
     84 H84        31.5664   -3.0858   -6.6728 H         1 UNK         0.0717 
     85 H85        30.6322   -1.6275   -6.8137 H         1 UNK         0.0717 
     86 H86        27.1650   -3.2747   -5.3650 H         1 UNK         0.0934 
     87 H87        28.2709   -2.0490   -4.8528 H         1 UNK         0.0934 
     88 H88        27.1476   -2.0718   -7.7072 H         1 UNK         0.0739 
     89 H89        25.6237   -1.4218   -5.3383 H         1 UNK         0.3093 
     90 H90        23.1306    0.4784   -7.0196 H         1 UNK         0.0818 
     91 H91        21.6071   -1.2819   -6.1575 H         1 UNK         0.0819 
     92 H92        22.4673   -1.8701   -7.5696 H         1 UNK         0.0819 
     93 H93        22.9578   -2.4008   -5.9668 H         1 UNK         0.0819 
     94 H94        23.3025   -0.5248   -4.3515 H         1 UNK         0.3041 
     95 H95        25.5789    1.8096   -3.0300 H         1 UNK         0.0784 
     96 H96        23.5453    3.2672   -3.1300 H         1 UNK         0.0793 
     97 H97        22.5395    1.9120   -2.6371 H         1 UNK         0.0793 
     98 H98        23.7553    2.5636   -1.5365 H         1 UNK         0.0793 
     99 H99        23.9300    0.0747   -1.6039 H         1 UNK         0.3024 
    100 H100       25.2385   -1.7470   -0.5859 H         1 UNK         0.1171 
    101 H101       23.0291   -2.1673   -1.7300 H         1 UNK         0.0786 
    102 H102       23.7369   -3.6827   -1.2077 H         1 UNK         0.0786 
    103 H103       23.8212   -3.2143   -2.9024 H         1 UNK         0.0786 
    104 H104       26.7750   -3.0051   -2.6995 H         1 UNK         0.2977 
    105 H105       27.2692    0.4203   -5.1438 H         1 UNK         0.3127 
    106 H106       29.5630    1.8167   -6.0205 H         1 UNK         0.0770 
    107 H107       27.1289    2.9830   -4.5698 H         1 UNK         0.0814 
    108 H108       28.7603    3.6268   -4.5850 H         1 UNK         0.0814 
    109 H109       28.4342    2.1029   -3.7766 H         1 UNK         0.0814 
    110 H110       26.1477    2.1241   -7.0050 H         1 UNK         0.2983 
    111 H111       26.5605    4.3216   -8.8212 H         1 UNK         0.0947 
    112 H112       24.2582    3.7403   -9.5919 H         1 UNK         0.0806 
    113 H113       24.3428    3.8290   -7.8391 H         1 UNK         0.0806 
    114 H114       24.2957    2.2620   -8.6401 H         1 UNK         0.0806 
    115 H115       26.1488    0.7625   -9.3765 H         1 UNK         0.3000 
    116 H116       26.3945    1.0779  -12.2210 H         1 UNK         0.0850 
    117 H117       26.1103   -1.3876  -12.2476 H         1 UNK         0.0810 
    118 H118       24.9294   -0.6295  -11.1909 H         1 UNK         0.0810 
    119 H119       26.3262   -1.4545  -10.5038 H         1 UNK         0.0810 
    120 H120       28.6224   -0.3146   -9.7521 H         1 UNK         0.3040 
    121 H121       30.6313   -0.8766  -11.9044 H         1 UNK         0.0766 
    122 H122       31.4516   -2.6113  -10.3126 H         1 UNK         0.0812 
    123 H123       29.7684   -2.8798  -10.7389 H         1 UNK         0.0812 
    124 H124       30.1820   -2.1853   -9.1741 H         1 UNK         0.0812 
    125 H125       30.1173    0.7031   -8.8202 H         1 UNK         0.3205 
    126 H126       31.1666    2.3095   -7.7205 H         1 UNK         0.0754 
    127 H127       33.1974    3.4569   -8.4137 H         1 UNK         0.0769 
    128 H128       32.1880    3.2409   -9.8325 H         1 UNK         0.0769 
    129 H129       33.5959    2.2086   -9.5779 H         1 UNK         0.0769 
    130 H130       32.7912    2.5316   -6.0623 H         1 UNK         0.2981 
    131 H131       33.3054   -0.0648   -4.8957 H         1 UNK         0.0541 
    132 H132       35.3607    1.7027   -6.9284 H         1 UNK         0.3459 
    133 H133       36.8635    1.0889   -6.2841 H         1 UNK         0.3459 
    134 H134       33.8605    2.6497   -3.6300 H         1 UNK         0.0612 
    135 H135       33.6739    1.1222   -2.8082 H         1 UNK         0.0612 
    136 H136       29.9362    0.8933   -2.1367 H         1 UNK         0.0624 
    137 H137       31.5339    0.8149   -1.4343 H         1 UNK         0.0624 
@<TRIPOS>BOND
     1    1    2 1    
     2    1   72 1    
     3    1   73 1    
     4    1   74 1    
     5    2    3 2    
     6    2    4 am   BACKBONE|DICT|INTERRES
     7    4    5 1    
     8    4   75 1    
     9    5    6 1    
    10    5   35 1    
    11    5   76 1    
    12    6    7 1    
    13    6   77 1    
    14    6   78 1    
    15    7    8 1    
    16    8    9 1    
    17    8   79 1    
    18    8   80 1    
    19    9   10 ar   
    20    9   14 ar   
    21   10   11 ar   
    22   10   81 1    
    23   11   12 ar   
    24   11   71 1    
    25   12   13 ar   
    26   12   82 1    
    27   13   14 ar   
    28   13   15 1    
    29   14   83 1    
    30   15   16 1    
    31   15   84 1    
    32   15   85 1    
    33   16   17 1    
    34   17   18 1    
    35   17   86 1    
    36   17   87 1    
    37   18   19 1    
    38   18   37 1    
    39   18   88 1    
    40   19   20 am   BACKBONE|DICT|INTERRES
    41   19   89 1    
    42   20   21 2    
    43   20   22 1    
    44   22   23 1    
    45   22   24 1    
    46   22   90 1    
    47   23   91 1    
    48   23   92 1    
    49   23   93 1    
    50   24   25 am   BACKBONE|DICT|INTERRES
    51   24   94 1    
    52   25   26 2    
    53   25   27 1    
    54   27   28 1    
    55   27   29 1    
    56   27   95 1    
    57   28   96 1    
    58   28   97 1    
    59   28   98 1    
    60   29   30 am   BACKBONE|DICT|INTERRES
    61   29   99 1    
    62   30   31 2    
    63   30   32 1    
    64   32   33 1    
    65   32   34 1    
    66   32  100 1    
    67   33  101 1    
    68   33  102 1    
    69   33  103 1    
    70   34   35 am   BACKBONE|DICT|INTERRES
    71   34  104 1    
    72   35   36 2    
    73   37   38 2    
    74   37   39 am   BACKBONE|DICT|INTERRES
    75   39   40 1    
    76   39  105 1    
    77   40   41 1    
    78   40   42 1    
    79   40  106 1    
    80   41  107 1    
    81   41  108 1    
    82   41  109 1    
    83   42   43 2    
    84   42   44 am   BACKBONE|DICT|INTERRES
    85   44   45 1    
    86   44  110 1    
    87   45   46 1    
    88   45   47 1    
    89   45  111 1    
    90   46  112 1    
    91   46  113 1    
    92   46  114 1    
    93   47   48 2    
    94   47   49 am   BACKBONE|DICT|INTERRES
    95   49   50 1    
    96   49  115 1    
    97   50   51 1    
    98   50   52 1    
    99   50  116 1    
   100   51  117 1    
   101   51  118 1    
   102   51  119 1    
   103   52   53 2    
   104   52   54 am   BACKBONE|DICT|INTERRES
   105   54   55 1    
   106   54  120 1    
   107   55   56 1    
   108   55   57 1    
   109   55  121 1    
   110   56  122 1    
   111   56  123 1    
   112   56  124 1    
   113   57   58 2    
   114   57   59 am   BACKBONE|DICT|INTERRES
   115   59   60 1    
   116   59  125 1    
   117   60   61 1    
   118   60   62 1    
   119   60  126 1    
   120   61  127 1    
   121   61  128 1    
   122   61  129 1    
   123   62   63 2    
   124   62   64 am   BACKBONE|DICT|INTERRES
   125   64   65 1    
   126   64  130 1    
   127   65   66 1    
   128   65   69 1    
   129   65  131 1    
   130   66   67 am   BACKBONE|DICT|INTERRES
   131   66   68 2    
   132   67  132 1    
   133   67  133 1    
   134   69   70 1    
   135   69  134 1    
   136   69  135 1    
   137   70   71 1    
   138   71  136 1    
   139   71  137 1    
@<TRIPOS>SUBSTRUCTURE
     1 UNK         1 GROUP             0       ****    0 ROOT    
