@<TRIPOS>MOLECULE
3R137
137   139    1
SMALL
USER_CHARGES


@<TRIPOS>ATOM
      1 CA         27.5268   -8.1557   -3.1041 C.3       0 UNK        -0.2020 
      2 C          27.1884   -6.9674   -2.2162 C.2       0 UNK         0.4855 
      3 O          26.3195   -7.0783   -1.3504 O.2       0 UNK        -0.5197 
      4 N          27.8732   -5.8346   -2.4190 N.am      1 UNK        -0.4892 
      5 CA         27.6193   -4.5705   -1.7182 C.3       1 UNK         0.0835 
      6 C6         28.8514   -3.6337   -1.7942 C.3       12 UNK        -0.0855 
      7 S7         29.0982   -2.6667   -0.2696 S.3       12 UNK        -0.2931 
      8 C8         30.8286   -2.1323   -0.4871 C.3       12 UNK         0.0378 
      9 C9         30.9660   -1.2068   -1.6862 C.ar      12 UNK        -0.0802 
     10 C10        31.3869   -1.7036   -2.9237 C.ar      12 UNK        -0.0944 
     11 C11        31.4339   -0.8688   -4.0440 C.ar      12 UNK        -0.0787 
     12 C12        31.0657    0.4732   -3.9178 C.ar      12 UNK        -0.0862 
     13 C13        30.6496    0.9828   -2.6825 C.ar      12 UNK        -0.0733 
     14 C14        30.6249    0.1419   -1.5660 C.ar      12 UNK        -0.0832 
     15 C15        30.1916    2.4323   -2.5669 C.3       12 UNK         0.0240 
     16 S16        28.5258    2.6172   -1.8287 S.3       12 UNK        -0.2522 
     17 C17        27.5296    1.2808   -2.5859 C.3       12 UNK        -0.0967 
     18 CA         27.5582    1.2412   -4.1341 C.3       5 UNK         0.0660 
     19 N          27.2438   -0.0954   -4.6433 N.am      5 UNK        -0.4015 
     20 C          27.6808   -0.5841   -5.8129 C.2       4 UNK         0.4946 
     21 O          28.4426    0.0256   -6.5610 O.2       4 UNK        -0.5353 
     22 CA         27.1499   -1.9595   -6.2594 C.3       4 UNK         0.0277 
     23 CB         28.1268   -3.0793   -5.8712 C.3       4 UNK        -0.1981 
     24 N          25.8123   -2.2569   -5.7392 N.am      4 UNK        -0.4209 
     25 C          24.7138   -1.5722   -6.0934 C.2       3 UNK         0.4942 
     26 O          24.7176   -0.6865   -6.9478 O.2       3 UNK        -0.5208 
     27 CA         23.4073   -1.8623   -5.3332 C.3       3 UNK         0.0250 
     28 CB         22.5557   -2.8823   -6.1043 C.3       3 UNK        -0.1990 
     29 N          23.5963   -2.3288   -3.9565 N.am      3 UNK        -0.4232 
     30 C          24.2771   -1.6927   -2.9915 C.2       2 UNK         0.4993 
     31 O          24.8360   -0.6065   -3.1521 O.2       2 UNK        -0.5286 
     32 CA         24.3987   -2.4098   -1.6330 C.3       2 UNK         0.0209 
     33 CB         23.2671   -3.4301   -1.3749 C.3       2 UNK        -0.1931 
     34 N          25.7039   -3.0584   -1.4312 N.am      2 UNK        -0.4546 
     35 C          26.3413   -3.8954   -2.2649 C.2       1 UNK         0.5154 
     36 O          25.9707   -4.1379   -3.4185 O.2       1 UNK        -0.5181 
     37 C          26.6489    2.3136   -4.7595 C.2       5 UNK         0.5014 
     38 O          27.1081    3.4357   -4.9736 O.2       5 UNK        -0.5248 
     39 N          25.3970    1.9517   -5.0831 N.am      6 UNK        -0.4434 
     40 CA         24.4760    2.7964   -5.8503 C.3       6 UNK         0.0363 
     41 CB         23.0596    2.2003   -5.8207 C.3       6 UNK        -0.1936 
     42 C          24.9612    3.0053   -7.2965 C.2       6 UNK         0.5081 
     43 O          24.8889    4.1249   -7.8036 O.2       6 UNK        -0.5248 
     44 N          25.4800    1.9353   -7.9172 N.am      7 UNK        -0.4718 
     45 CA         26.1670    1.9758   -9.2103 C.3       7 UNK         0.0273 
     46 CB         26.3454    0.5431   -9.7372 C.3       7 UNK        -0.1935 
     47 C          27.5268    2.6922   -9.1336 C.2       7 UNK         0.5018 
     48 O          27.8824    3.4132  -10.0666 O.2       7 UNK        -0.5186 
     49 N          28.2652    2.4619   -8.0371 N.am      8 UNK        -0.4240 
     50 CA         29.5801    2.9977   -7.6556 C.3       8 UNK         0.0235 
     51 CB         29.5653    4.5348   -7.5582 C.3       8 UNK        -0.2000 
     52 C          30.7402    2.4991   -8.5324 C.2       8 UNK         0.4941 
     53 O          31.7619    2.0678   -7.9985 O.2       8 UNK        -0.5273 
     54 N          30.5555    2.5315   -9.8575 N.am      9 UNK        -0.4262 
     55 CA         31.5058    2.0626  -10.8694 C.3       9 UNK         0.0264 
     56 CB         31.0577    2.5784  -12.2465 C.3       9 UNK        -0.1955 
     57 C          31.6847    0.5330  -10.9010 C.2       9 UNK         0.5031 
     58 O          32.6494    0.0606  -11.5036 O.2       9 UNK        -0.5390 
     59 N          30.7783   -0.2106  -10.2481 N.am      10 UNK        -0.4204 
     60 CA         30.7321   -1.6764  -10.1766 C.3       10 UNK         0.0237 
     61 CB         29.4990   -2.0927   -9.3590 C.3       10 UNK        -0.1985 
     62 C          31.9981   -2.3532   -9.6149 C.2       10 UNK         0.4970 
     63 O          32.2203   -3.5283   -9.9100 O.2       10 UNK        -0.4914 
     64 N          32.8007   -1.6131   -8.8427 N.am      11 UNK        -0.4285 
     65 CA         34.1201   -2.0268   -8.3468 C.3       11 UNK         0.1007 
     66 C          35.2499   -1.0243   -8.7239 C.2       11 UNK         0.5703 
     67 N          35.0545   -0.1480   -9.7039 N.am      11 UNK        -0.7361 
     68 O          36.3333   -1.0554   -8.1446 O.2       11 UNK        -0.4986 
     69 C69        34.0773   -2.4214   -6.8459 C.3       12 UNK        -0.0947 
     70 S70        33.6172   -1.0673   -5.7098 S.3       12 UNK        -0.2240 
     71 C71        31.8622   -1.4239   -5.3929 C.3       12 UNK         0.0194 
     72 H72        26.6476   -8.4622   -3.6702 H         1 UNK         0.0906 
     73 H73        28.3217   -7.9234   -3.8126 H         1 UNK         0.0906 
     74 H74        27.8514   -8.9991   -2.4952 H         1 UNK         0.0906 
     75 H75        28.5441   -5.7929   -3.1724 H         1 UNK         0.3140 
     76 H76        27.4352   -4.8241   -0.6711 H         1 UNK         0.1085 
     77 H77        28.7958   -2.9479   -2.6404 H         1 UNK         0.0836 
     78 H78        29.7590   -4.2205   -1.9470 H         1 UNK         0.0836 
     79 H79        31.4742   -3.0054   -0.5949 H         1 UNK         0.0731 
     80 H80        31.1591   -1.6175    0.4162 H         1 UNK         0.0731 
     81 H81        31.6558   -2.7465   -3.0207 H         1 UNK         0.1312 
     82 H82        31.0898    1.1126   -4.7902 H         1 UNK         0.1406 
     83 H83        30.2884    0.5263   -0.6124 H         1 UNK         0.1631 
     84 H84        30.1935    2.9186   -3.5437 H         1 UNK         0.0717 
     85 H85        30.9084    2.9813   -1.9549 H         1 UNK         0.0717 
     86 H86        27.9011    0.3367   -2.1842 H         1 UNK         0.0934 
     87 H87        26.5053    1.3588   -2.2158 H         1 UNK         0.0934 
     88 H88        28.5658    1.4755   -4.4719 H         1 UNK         0.0739 
     89 H89        26.5563   -0.6174   -4.1096 H         1 UNK         0.3093 
     90 H90        27.0836   -1.9389   -7.3491 H         1 UNK         0.0818 
     91 H91        29.1310   -2.8738   -6.2436 H         1 UNK         0.0819 
     92 H92        27.8156   -4.0370   -6.2885 H         1 UNK         0.0819 
     93 H93        28.1985   -3.1944   -4.7923 H         1 UNK         0.0819 
     94 H94        25.7421   -2.9653   -5.0125 H         1 UNK         0.3041 
     95 H95        22.8501   -0.9255   -5.2787 H         1 UNK         0.0784 
     96 H96        22.3774   -2.5477   -7.1275 H         1 UNK         0.0793 
     97 H97        23.0445   -3.8559   -6.1599 H         1 UNK         0.0793 
     98 H98        21.5805   -3.0208   -5.6370 H         1 UNK         0.0793 
     99 H99        23.2170   -3.2382   -3.7361 H         1 UNK         0.3024 
    100 H100       24.3152   -1.6269   -0.8770 H         1 UNK         0.1171 
    101 H101       23.2955   -3.7881   -0.3456 H         1 UNK         0.0786 
    102 H102       22.2845   -2.9805   -1.5263 H         1 UNK         0.0786 
    103 H103       23.3397   -4.3041   -2.0235 H         1 UNK         0.0786 
    104 H104       26.1406   -2.8714   -0.5383 H         1 UNK         0.2977 
    105 H105       25.0817    1.0216   -4.8415 H         1 UNK         0.3127 
    106 H106       24.4402    3.7746   -5.3656 H         1 UNK         0.0770 
    107 H107       23.0039    1.2529   -6.3558 H         1 UNK         0.0814 
    108 H108       22.3480    2.8777   -6.2944 H         1 UNK         0.0814 
    109 H109       22.7172    2.0331   -4.7993 H         1 UNK         0.0814 
    110 H110       25.4019    1.0273   -7.4654 H         1 UNK         0.2983 
    111 H111       25.5397    2.5273   -9.9142 H         1 UNK         0.0947 
    112 H112       26.8481    0.5397  -10.7054 H         1 UNK         0.0806 
    113 H113       25.3830    0.0480   -9.8689 H         1 UNK         0.0806 
    114 H114       26.9400   -0.0650   -9.0552 H         1 UNK         0.0806 
    115 H115       27.9251    1.7478   -7.4008 H         1 UNK         0.3000 
    116 H116       29.7642    2.6116   -6.6515 H         1 UNK         0.0850 
    117 H117       30.5165    4.9086   -7.1771 H         1 UNK         0.0810 
    118 H118       28.7858    4.8772   -6.8771 H         1 UNK         0.0810 
    119 H119       29.3959    5.0071   -8.5261 H         1 UNK         0.0810 
    120 H120       29.6698    2.9096  -10.1887 H         1 UNK         0.3040 
    121 H121       32.4816    2.4961  -10.6402 H         1 UNK         0.0766 
    122 H122       31.0073    3.6672  -12.2652 H         1 UNK         0.0812 
    123 H123       30.0752    2.1922  -12.5217 H         1 UNK         0.0812 
    124 H124       31.7582    2.2751  -13.0260 H         1 UNK         0.0812 
    125 H125       30.0414    0.2826   -9.7665 H         1 UNK         0.3205 
    126 H126       30.6058   -2.0431  -11.1972 H         1 UNK         0.0754 
    127 H127       29.4297   -3.1781   -9.2718 H         1 UNK         0.0769 
    128 H128       28.5766   -1.7498   -9.8272 H         1 UNK         0.0769 
    129 H129       29.5379   -1.6857   -8.3487 H         1 UNK         0.0769 
    130 H130       32.5480   -0.6540   -8.6496 H         1 UNK         0.2981 
    131 H131       34.4189   -2.9294   -8.8823 H         1 UNK         0.0541 
    132 H132       34.2041   -0.1572  -10.2563 H         1 UNK         0.3459 
    133 H133       35.7983    0.4880   -9.9431 H         1 UNK         0.3459 
    134 H134       33.3929   -3.2596   -6.7116 H         1 UNK         0.0612 
    135 H135       35.0513   -2.8002   -6.5318 H         1 UNK         0.0612 
    136 H136       31.6834   -2.4995   -5.4196 H         1 UNK         0.0624 
    137 H137       31.2554   -0.9905   -6.1900 H         1 UNK         0.0624 
@<TRIPOS>BOND
     1    1    2 1    
     2    1   72 1    
     3    1   73 1    
     4    1   74 1    
     5    2    3 2    
     6    2    4 am   BACKBONE|DICT|INTERRES
     7    4    5 1    
     8    4   75 1    
     9    5    6 1    
    10    5   35 1    
    11    5   76 1    
    12    6    7 1    
    13    6   77 1    
    14    6   78 1    
    15    7    8 1    
    16    8    9 1    
    17    8   79 1    
    18    8   80 1    
    19    9   10 ar   
    20    9   14 ar   
    21   10   11 ar   
    22   10   81 1    
    23   11   12 ar   
    24   11   71 1    
    25   12   13 ar   
    26   12   82 1    
    27   13   14 ar   
    28   13   15 1    
    29   14   83 1    
    30   15   16 1    
    31   15   84 1    
    32   15   85 1    
    33   16   17 1    
    34   17   18 1    
    35   17   86 1    
    36   17   87 1    
    37   18   19 1    
    38   18   37 1    
    39   18   88 1    
    40   19   20 am   BACKBONE|DICT|INTERRES
    41   19   89 1    
    42   20   21 2    
    43   20   22 1    
    44   22   23 1    
    45   22   24 1    
    46   22   90 1    
    47   23   91 1    
    48   23   92 1    
    49   23   93 1    
    50   24   25 am   BACKBONE|DICT|INTERRES
    51   24   94 1    
    52   25   26 2    
    53   25   27 1    
    54   27   28 1    
    55   27   29 1    
    56   27   95 1    
    57   28   96 1    
    58   28   97 1    
    59   28   98 1    
    60   29   30 am   BACKBONE|DICT|INTERRES
    61   29   99 1    
    62   30   31 2    
    63   30   32 1    
    64   32   33 1    
    65   32   34 1    
    66   32  100 1    
    67   33  101 1    
    68   33  102 1    
    69   33  103 1    
    70   34   35 am   BACKBONE|DICT|INTERRES
    71   34  104 1    
    72   35   36 2    
    73   37   38 2    
    74   37   39 am   BACKBONE|DICT|INTERRES
    75   39   40 1    
    76   39  105 1    
    77   40   41 1    
    78   40   42 1    
    79   40  106 1    
    80   41  107 1    
    81   41  108 1    
    82   41  109 1    
    83   42   43 2    
    84   42   44 am   BACKBONE|DICT|INTERRES
    85   44   45 1    
    86   44  110 1    
    87   45   46 1    
    88   45   47 1    
    89   45  111 1    
    90   46  112 1    
    91   46  113 1    
    92   46  114 1    
    93   47   48 2    
    94   47   49 am   BACKBONE|DICT|INTERRES
    95   49   50 1    
    96   49  115 1    
    97   50   51 1    
    98   50   52 1    
    99   50  116 1    
   100   51  117 1    
   101   51  118 1    
   102   51  119 1    
   103   52   53 2    
   104   52   54 am   BACKBONE|DICT|INTERRES
   105   54   55 1    
   106   54  120 1    
   107   55   56 1    
   108   55   57 1    
   109   55  121 1    
   110   56  122 1    
   111   56  123 1    
   112   56  124 1    
   113   57   58 2    
   114   57   59 am   BACKBONE|DICT|INTERRES
   115   59   60 1    
   116   59  125 1    
   117   60   61 1    
   118   60   62 1    
   119   60  126 1    
   120   61  127 1    
   121   61  128 1    
   122   61  129 1    
   123   62   63 2    
   124   62   64 am   BACKBONE|DICT|INTERRES
   125   64   65 1    
   126   64  130 1    
   127   65   66 1    
   128   65   69 1    
   129   65  131 1    
   130   66   67 am   BACKBONE|DICT|INTERRES
   131   66   68 2    
   132   67  132 1    
   133   67  133 1    
   134   69   70 1    
   135   69  134 1    
   136   69  135 1    
   137   70   71 1    
   138   71  136 1    
   139   71  137 1    
@<TRIPOS>SUBSTRUCTURE
     1 UNK         1 GROUP             0       ****    0 ROOT    
