@<TRIPOS>MOLECULE
3R137
137   139    1
SMALL
USER_CHARGES


@<TRIPOS>ATOM
      1 CA         26.5794    0.9622    4.1508 C.3       0 UNK        -0.2020 
      2 C          26.8481    0.7290    2.6713 C.2       0 UNK         0.4855 
      3 O          27.0764    1.6865    1.9316 O.2       0 UNK        -0.5197 
      4 N          26.8216   -0.5334    2.2345 N.am      1 UNK        -0.4892 
      5 CA         27.0221   -0.9623    0.8520 C.3       1 UNK         0.0835 
      6 C6         28.5286   -1.0607    0.4947 C.3       12 UNK        -0.0855 
      7 S7         28.8182   -0.9360   -1.2983 S.3       12 UNK        -0.2931 
      8 C8         29.6066   -2.5337   -1.6597 C.3       12 UNK         0.0378 
      9 C9         29.8618   -2.6908   -3.1520 C.ar      12 UNK        -0.0802 
     10 C10        30.8757   -1.9564   -3.7747 C.ar      12 UNK        -0.0944 
     11 C11        31.1104   -2.0910   -5.1468 C.ar      12 UNK        -0.0787 
     12 C12        30.3330   -2.9794   -5.8957 C.ar      12 UNK        -0.0862 
     13 C13        29.3258   -3.7284   -5.2816 C.ar      12 UNK        -0.0733 
     14 C14        29.0915   -3.5750   -3.9122 C.ar      12 UNK        -0.0832 
     15 C15        28.5019   -4.7238   -6.0821 C.3       12 UNK         0.0240 
     16 S16        26.9127   -4.0147   -6.6083 S.3       12 UNK        -0.2522 
     17 C17        27.3646   -3.1506   -8.1539 C.3       12 UNK        -0.0967 
     18 CA         26.9919   -1.6482   -8.1755 C.3       5 UNK         0.0660 
     19 N          25.6032   -1.4080   -7.7657 N.am      5 UNK        -0.4015 
     20 C          24.9798   -0.2212   -7.7547 C.2       4 UNK         0.4946 
     21 O          25.4700    0.8045   -8.2302 O.2       4 UNK        -0.5353 
     22 CA         23.6171   -0.1330   -7.0432 C.3       4 UNK         0.0277 
     23 CB         22.4868   -0.0384   -8.0805 C.3       4 UNK        -0.1981 
     24 N          23.3156   -1.2171   -6.0956 N.am      4 UNK        -0.4209 
     25 C          24.0547   -1.5898   -5.0391 C.2       3 UNK         0.4942 
     26 O          25.1541   -1.1042   -4.7580 O.2       3 UNK        -0.5208 
     27 CA         23.4730   -2.7166   -4.1753 C.3       3 UNK         0.0250 
     28 CB         23.2987   -4.0215   -4.9820 C.3       3 UNK        -0.1990 
     29 N          24.3441   -2.9561   -3.0249 N.am      3 UNK        -0.4232 
     30 C          23.9698   -3.5762   -1.8985 C.2       2 UNK         0.4993 
     31 O          22.8213   -3.9654   -1.6833 O.2       2 UNK        -0.5286 
     32 CA         25.0440   -3.8102   -0.8302 C.3       2 UNK         0.0209 
     33 CB         25.9947   -4.9510   -1.2361 C.3       2 UNK        -0.1931 
     34 N          25.7990   -2.5905   -0.5294 N.am      2 UNK        -0.4546 
     35 C          26.2882   -2.3039    0.6837 C.2       1 UNK         0.5154 
     36 O          26.1806   -3.0537    1.6602 O.2       1 UNK        -0.5181 
     37 C          28.0180   -0.7721   -7.4227 C.2       5 UNK         0.5014 
     38 O          29.0464   -0.4310   -8.0098 O.2       5 UNK        -0.5248 
     39 N          27.6833   -0.3320   -6.1999 N.am      6 UNK        -0.4434 
     40 CA         28.4133    0.6783   -5.4289 C.3       6 UNK         0.0363 
     41 CB         27.6481    0.9435   -4.1252 C.3       6 UNK        -0.1936 
     42 C          28.6348    2.0090   -6.1758 C.2       6 UNK         0.5081 
     43 O          29.6264    2.6858   -5.9057 O.2       6 UNK        -0.5248 
     44 N          27.7241    2.3523   -7.0974 N.am      7 UNK        -0.4718 
     45 CA         27.8255    3.5073   -7.9872 C.3       7 UNK         0.0273 
     46 CB         26.5345    4.3363   -7.8858 C.3       7 UNK        -0.1935 
     47 C          28.0695    3.0749   -9.4410 C.2       7 UNK         0.5018 
     48 O          28.8720    3.7106  -10.1240 O.2       7 UNK        -0.5186 
     49 N          27.3658    2.0286   -9.9014 N.am      8 UNK        -0.4240 
     50 CA         27.3802    1.5798  -11.2969 C.3       8 UNK         0.0235 
     51 CB         26.1562    0.6910  -11.5729 C.3       8 UNK        -0.2000 
     52 C          28.6815    0.8758  -11.7166 C.2       8 UNK         0.4941 
     53 O          29.1393    1.0992  -12.8382 O.2       8 UNK        -0.5273 
     54 N          29.2551    0.0507  -10.8289 N.am      9 UNK        -0.4262 
     55 CA         30.5601   -0.5887  -11.0291 C.3       9 UNK         0.0264 
     56 CB         30.5491   -2.0192  -10.4618 C.3       9 UNK        -0.1955 
     57 C          31.6762    0.2447  -10.3837 C.2       9 UNK         0.5031 
     58 O          32.7863    0.2735  -10.9152 O.2       9 UNK        -0.5390 
     59 N          31.3678    0.9035   -9.2554 N.am      10 UNK        -0.4204 
     60 CA         32.1713    1.8825   -8.5048 C.3       10 UNK         0.0237 
     61 CB         32.5142    3.1055   -9.3783 C.3       10 UNK        -0.1985 
     62 C          33.4332    1.3333   -7.8124 C.2       10 UNK         0.4970 
     63 O          33.8512    1.9145   -6.8108 O.2       10 UNK        -0.4914 
     64 N          34.0014    0.2351   -8.3263 N.am      11 UNK        -0.4285 
     65 CA         35.1846   -0.4716   -7.8046 C.3       11 UNK         0.1007 
     66 C          36.5186    0.3287   -7.9294 C.2       11 UNK         0.5703 
     67 N          36.5939    1.3622   -8.7601 N.am      11 UNK        -0.7361 
     68 O          37.5148   -0.0084   -7.2936 O.2       11 UNK        -0.4986 
     69 C69        34.9620   -1.0598   -6.3790 C.3       12 UNK        -0.0947 
     70 S70        33.6155   -2.2898   -6.2987 S.3       12 UNK        -0.2240 
     71 C71        32.1897   -1.2631   -5.8235 C.3       12 UNK         0.0194 
     72 H72        26.3799    0.0314    4.6814 H         1 UNK         0.0906 
     73 H73        27.4402    1.4399    4.6173 H         1 UNK         0.0906 
     74 H74        25.7168    1.6155    4.2772 H         1 UNK         0.0906 
     75 H75        26.5880   -1.2975    2.8592 H         1 UNK         0.3140 
     76 H76        26.5375   -0.2292    0.2022 H         1 UNK         0.1085 
     77 H77        28.9797   -1.9678    0.9026 H         1 UNK         0.0836 
     78 H78        29.0757   -0.2332    0.9495 H         1 UNK         0.0836 
     79 H79        28.9721   -3.3412   -1.2899 H         1 UNK         0.0731 
     80 H80        30.5510   -2.6046   -1.1177 H         1 UNK         0.0731 
     81 H81        31.4714   -1.2692   -3.1892 H         1 UNK         0.1312 
     82 H82        30.5185   -3.0868   -6.9554 H         1 UNK         0.1406 
     83 H83        28.3112   -4.1533   -3.4406 H         1 UNK         0.1631 
     84 H84        28.3010   -5.6028   -5.4678 H         1 UNK         0.0717 
     85 H85        29.0590   -5.0864   -6.9474 H         1 UNK         0.0717 
     86 H86        28.4244   -3.2897   -8.3742 H         1 UNK         0.0934 
     87 H87        26.8395   -3.6570   -8.9653 H         1 UNK         0.0934 
     88 H88        27.0550   -1.3314   -9.2162 H         1 UNK         0.0739 
     89 H89        25.1396   -2.1919   -7.3303 H         1 UNK         0.3093 
     90 H90        23.6296    0.7954   -6.4685 H         1 UNK         0.0818 
     91 H91        21.5252    0.1573   -7.6055 H         1 UNK         0.0819 
     92 H92        22.6675    0.7765   -8.7835 H         1 UNK         0.0819 
     93 H93        22.3953   -0.9561   -8.6629 H         1 UNK         0.0819 
     94 H94        22.4337   -1.6880   -6.2404 H         1 UNK         0.3041 
     95 H95        22.4982   -2.3789   -3.8164 H         1 UNK         0.0784 
     96 H96        22.6603   -3.8788   -5.8543 H         1 UNK         0.0793 
     97 H97        24.2555   -4.4061   -5.3349 H         1 UNK         0.0793 
     98 H98        22.8341   -4.8019   -4.3792 H         1 UNK         0.0793 
     99 H99        25.2895   -2.6180   -3.1480 H         1 UNK         0.3024 
    100 H100       24.5100   -4.1254    0.0702 H         1 UNK         0.1171 
    101 H101       26.7178   -5.1667   -0.4489 H         1 UNK         0.0786 
    102 H102       25.4389   -5.8703   -1.4261 H         1 UNK         0.0786 
    103 H103       26.5465   -4.7120   -2.1440 H         1 UNK         0.0786 
    104 H104       25.9008   -1.9133   -1.2726 H         1 UNK         0.2977 
    105 H105       26.8200   -0.6696   -5.7829 H         1 UNK         0.3127 
    106 H106       29.3917    0.2613   -5.1856 H         1 UNK         0.0770 
    107 H107       26.6932    1.4370   -4.3108 H         1 UNK         0.0814 
    108 H108       27.4377    0.0145   -3.5979 H         1 UNK         0.0814 
    109 H109       28.2254    1.5800   -3.4535 H         1 UNK         0.0814 
    110 H110       26.9417    1.7272   -7.2622 H         1 UNK         0.2983 
    111 H111       28.6614    4.1456   -7.6919 H         1 UNK         0.0947 
    112 H112       26.3836    4.7080   -6.8723 H         1 UNK         0.0806 
    113 H113       25.6546    3.7536   -8.1623 H         1 UNK         0.0806 
    114 H114       26.5741    5.2036   -8.5464 H         1 UNK         0.0806 
    115 H115       26.6865    1.5838   -9.2859 H         1 UNK         0.3000 
    116 H116       27.2830    2.4685  -11.9249 H         1 UNK         0.0850 
    117 H117       26.1184    0.3971  -12.6227 H         1 UNK         0.0810 
    118 H118       25.2275    1.2172  -11.3511 H         1 UNK         0.0810 
    119 H119       26.1690   -0.2227  -10.9813 H         1 UNK         0.0810 
    120 H120       28.8485   -0.0468   -9.9051 H         1 UNK         0.3040 
    121 H121       30.7750   -0.6616  -12.0974 H         1 UNK         0.0766 
    122 H122       30.4788   -2.0353   -9.3749 H         1 UNK         0.0812 
    123 H123       31.4681   -2.5430  -10.7276 H         1 UNK         0.0812 
    124 H124       29.7185   -2.6001  -10.8627 H         1 UNK         0.0812 
    125 H125       30.4672    0.6854   -8.8386 H         1 UNK         0.3205 
    126 H126       31.5196    2.2308   -7.7034 H         1 UNK         0.0754 
    127 H127       33.0112    3.8776   -8.7895 H         1 UNK         0.0769 
    128 H128       31.6154    3.5523   -9.8032 H         1 UNK         0.0769 
    129 H129       33.1808    2.8466  -10.2013 H         1 UNK         0.0769 
    130 H130       33.6347   -0.1012   -9.2107 H         1 UNK         0.2981 
    131 H131       35.3244   -1.3184   -8.4770 H         1 UNK         0.0541 
    132 H132       35.7925    1.6397   -9.3032 H         1 UNK         0.3459 
    133 H133       37.4626    1.8662   -8.8436 H         1 UNK         0.3459 
    134 H134       34.7927   -0.2702   -5.6462 H         1 UNK         0.0612 
    135 H135       35.8604   -1.5804   -6.0434 H         1 UNK         0.0612 
    136 H136       32.5136   -0.4538   -5.1674 H         1 UNK         0.0624 
    137 H137       31.7696   -0.7940   -6.7138 H         1 UNK         0.0624 
@<TRIPOS>BOND
     1    1    2 1    
     2    1   72 1    
     3    1   73 1    
     4    1   74 1    
     5    2    3 2    
     6    2    4 am   BACKBONE|DICT|INTERRES
     7    4    5 1    
     8    4   75 1    
     9    5    6 1    
    10    5   35 1    
    11    5   76 1    
    12    6    7 1    
    13    6   77 1    
    14    6   78 1    
    15    7    8 1    
    16    8    9 1    
    17    8   79 1    
    18    8   80 1    
    19    9   10 ar   
    20    9   14 ar   
    21   10   11 ar   
    22   10   81 1    
    23   11   12 ar   
    24   11   71 1    
    25   12   13 ar   
    26   12   82 1    
    27   13   14 ar   
    28   13   15 1    
    29   14   83 1    
    30   15   16 1    
    31   15   84 1    
    32   15   85 1    
    33   16   17 1    
    34   17   18 1    
    35   17   86 1    
    36   17   87 1    
    37   18   19 1    
    38   18   37 1    
    39   18   88 1    
    40   19   20 am   BACKBONE|DICT|INTERRES
    41   19   89 1    
    42   20   21 2    
    43   20   22 1    
    44   22   23 1    
    45   22   24 1    
    46   22   90 1    
    47   23   91 1    
    48   23   92 1    
    49   23   93 1    
    50   24   25 am   BACKBONE|DICT|INTERRES
    51   24   94 1    
    52   25   26 2    
    53   25   27 1    
    54   27   28 1    
    55   27   29 1    
    56   27   95 1    
    57   28   96 1    
    58   28   97 1    
    59   28   98 1    
    60   29   30 am   BACKBONE|DICT|INTERRES
    61   29   99 1    
    62   30   31 2    
    63   30   32 1    
    64   32   33 1    
    65   32   34 1    
    66   32  100 1    
    67   33  101 1    
    68   33  102 1    
    69   33  103 1    
    70   34   35 am   BACKBONE|DICT|INTERRES
    71   34  104 1    
    72   35   36 2    
    73   37   38 2    
    74   37   39 am   BACKBONE|DICT|INTERRES
    75   39   40 1    
    76   39  105 1    
    77   40   41 1    
    78   40   42 1    
    79   40  106 1    
    80   41  107 1    
    81   41  108 1    
    82   41  109 1    
    83   42   43 2    
    84   42   44 am   BACKBONE|DICT|INTERRES
    85   44   45 1    
    86   44  110 1    
    87   45   46 1    
    88   45   47 1    
    89   45  111 1    
    90   46  112 1    
    91   46  113 1    
    92   46  114 1    
    93   47   48 2    
    94   47   49 am   BACKBONE|DICT|INTERRES
    95   49   50 1    
    96   49  115 1    
    97   50   51 1    
    98   50   52 1    
    99   50  116 1    
   100   51  117 1    
   101   51  118 1    
   102   51  119 1    
   103   52   53 2    
   104   52   54 am   BACKBONE|DICT|INTERRES
   105   54   55 1    
   106   54  120 1    
   107   55   56 1    
   108   55   57 1    
   109   55  121 1    
   110   56  122 1    
   111   56  123 1    
   112   56  124 1    
   113   57   58 2    
   114   57   59 am   BACKBONE|DICT|INTERRES
   115   59   60 1    
   116   59  125 1    
   117   60   61 1    
   118   60   62 1    
   119   60  126 1    
   120   61  127 1    
   121   61  128 1    
   122   61  129 1    
   123   62   63 2    
   124   62   64 am   BACKBONE|DICT|INTERRES
   125   64   65 1    
   126   64  130 1    
   127   65   66 1    
   128   65   69 1    
   129   65  131 1    
   130   66   67 am   BACKBONE|DICT|INTERRES
   131   66   68 2    
   132   67  132 1    
   133   67  133 1    
   134   69   70 1    
   135   69  134 1    
   136   69  135 1    
   137   70   71 1    
   138   71  136 1    
   139   71  137 1    
@<TRIPOS>SUBSTRUCTURE
     1 UNK         1 GROUP             0       ****    0 ROOT    
