@<TRIPOS>MOLECULE
3R137
137   139    1
SMALL
USER_CHARGES


@<TRIPOS>ATOM
      1 CA         26.0835   -3.5705    2.5794 C.3       0 UNK        -0.2020 
      2 C          26.7611   -3.6226    1.2182 C.2       0 UNK         0.4855 
      3 O          26.9556   -4.7115    0.6782 O.2       0 UNK        -0.5197 
      4 N          27.1105   -2.4518    0.6639 N.am      1 UNK        -0.4892 
      5 CA         27.8011   -2.2605   -0.6252 C.3       1 UNK         0.0835 
      6 C6         29.2440   -2.8435   -0.6431 C.3       12 UNK        -0.0855 
      7 S7         30.2855   -2.1004    0.6657 S.3       12 UNK        -0.2931 
      8 C8         31.9237   -1.9669   -0.1321 C.3       12 UNK         0.0378 
      9 C9         31.9195   -1.1385   -1.4131 C.ar      12 UNK        -0.0802 
     10 C10        32.5621   -1.6262   -2.5551 C.ar      12 UNK        -0.0944 
     11 C11        32.5419   -0.8986   -3.7480 C.ar      12 UNK        -0.0787 
     12 C12        31.8618    0.3199   -3.8012 C.ar      12 UNK        -0.0862 
     13 C13        31.2120    0.8177   -2.6686 C.ar      12 UNK        -0.0733 
     14 C14        31.2709    0.0998   -1.4697 C.ar      12 UNK        -0.0832 
     15 C15        30.4139    2.1112   -2.7566 C.3       12 UNK         0.0240 
     16 S16        28.6627    1.8995   -2.2835 S.3       12 UNK        -0.2522 
     17 C17        28.1534    0.3915   -3.1854 C.3       12 UNK        -0.0967 
     18 CA         28.1994    0.4775   -4.7286 C.3       5 UNK         0.0660 
     19 N          27.8928   -0.8161   -5.3373 N.am      5 UNK        -0.4015 
     20 C          28.2579   -1.1797   -6.5739 C.2       4 UNK         0.4946 
     21 O          28.9683   -0.4981   -7.3120 O.2       4 UNK        -0.5353 
     22 CA         27.7012   -2.5118   -7.1033 C.3       4 UNK         0.0277 
     23 CB         28.5928   -3.6874   -6.6791 C.3       4 UNK        -0.1981 
     24 N          26.3247   -2.7632   -6.6769 N.am      4 UNK        -0.4209 
     25 C          25.2714   -2.0026   -7.0089 C.2       3 UNK         0.4942 
     26 O          25.3364   -1.0220   -7.7501 O.2       3 UNK        -0.5208 
     27 CA         23.9239   -2.3751   -6.3685 C.3       3 UNK         0.0250 
     28 CB         23.1679   -3.3756   -7.2570 C.3       3 UNK        -0.1990 
     29 N          24.0365   -2.9163   -5.0093 N.am      3 UNK        -0.4232 
     30 C          24.6044   -2.2994   -3.9620 C.2       2 UNK         0.4993 
     31 O          25.1253   -1.1819   -4.0307 O.2       2 UNK        -0.5286 
     32 CA         24.5655   -3.0546   -2.6171 C.3       2 UNK         0.0209 
     33 CB         24.5909   -4.5930   -2.7760 C.3       2 UNK        -0.1931 
     34 N          25.6111   -2.6315   -1.6771 N.am      2 UNK        -0.4546 
     35 C          26.9426   -2.7108   -1.8354 C.2       1 UNK         0.5154 
     36 O          27.4856   -3.0995   -2.8723 O.2       1 UNK        -0.5181 
     37 C          27.2670    1.5698   -5.2794 C.2       5 UNK         0.5014 
     38 O          27.7550    2.6318   -5.6660 O.2       5 UNK        -0.5248 
     39 N          25.9540    1.2894   -5.3271 N.am      6 UNK        -0.4434 
     40 CA         24.9083    2.2284   -5.7574 C.3       6 UNK         0.0363 
     41 CB         23.5276    1.5779   -5.5884 C.3       6 UNK        -0.1936 
     42 C          25.0768    2.7581   -7.1939 C.2       6 UNK         0.5081 
     43 O          24.6805    3.8912   -7.4675 O.2       6 UNK        -0.5248 
     44 N          25.6867    1.9515   -8.0731 N.am      7 UNK        -0.4718 
     45 CA         26.0846    2.3320   -9.4318 C.3       7 UNK         0.0273 
     46 CB         26.5365    1.0675  -10.1798 C.3       7 UNK        -0.1935 
     47 C          27.1917    3.4059   -9.4918 C.2       7 UNK         0.5018 
     48 O          27.3322    4.0499  -10.5317 O.2       7 UNK        -0.5186 
     49 N          27.9527    3.5612   -8.3967 N.am      8 UNK        -0.4240 
     50 CA         29.1100    4.4413   -8.1972 C.3       8 UNK         0.0235 
     51 CB         28.6188    5.8853   -7.9637 C.3       8 UNK        -0.2000 
     52 C          30.1807    4.3485   -9.3114 C.2       8 UNK         0.4941 
     53 O          30.4290    5.3463   -9.9889 O.2       8 UNK        -0.5273 
     54 N          30.8252    3.1952   -9.5356 N.am      9 UNK        -0.4262 
     55 CA         30.6650    1.8916   -8.8942 C.3       9 UNK         0.0264 
     56 CB         31.7081    1.7210   -7.7765 C.3       9 UNK        -0.1955 
     57 C          30.8291    0.8223   -9.9800 C.2       9 UNK         0.5031 
     58 O          31.5140    1.0667  -10.9776 O.2       9 UNK        -0.5390 
     59 N          30.2073   -0.3384   -9.7602 N.am      10 UNK        -0.4204 
     60 CA         30.1826   -1.4783  -10.6794 C.3       10 UNK         0.0237 
     61 CB         28.7548   -1.6596  -11.2297 C.3       10 UNK        -0.1985 
     62 C          30.7301   -2.7433   -9.9983 C.2       10 UNK         0.4970 
     63 O          30.2206   -3.8399  -10.2336 O.2       10 UNK        -0.4914 
     64 N          31.7638   -2.5692   -9.1661 N.am      11 UNK        -0.4285 
     65 CA         32.4750   -3.6534   -8.4688 C.3       11 UNK         0.1007 
     66 C          33.4353   -4.4819   -9.3725 C.2       11 UNK         0.5703 
     67 N          33.7322   -4.0614  -10.5969 N.am      11 UNK        -0.7361 
     68 O          33.9138   -5.5341   -8.9556 O.2       11 UNK        -0.4986 
     69 C69        33.2129   -3.1294   -7.2103 C.3       12 UNK        -0.0947 
     70 S70        32.0711   -2.3987   -5.9952 S.3       12 UNK        -0.2240 
     71 C71        33.2343   -1.4413   -4.9856 C.3       12 UNK         0.0194 
     72 H72        26.6715   -4.1240    3.3112 H         1 UNK         0.0906 
     73 H73        25.9685   -2.5489    2.9411 H         1 UNK         0.0906 
     74 H74        25.0943   -4.0241    2.5239 H         1 UNK         0.0906 
     75 H75        26.9261   -1.5996    1.1761 H         1 UNK         0.3140 
     76 H76        27.8965   -1.1801   -0.7402 H         1 UNK         0.1085 
     77 H77        29.7112   -2.6658   -1.6129 H         1 UNK         0.0836 
     78 H78        29.2301   -3.9264   -0.5123 H         1 UNK         0.0836 
     79 H79        32.2918   -2.9756   -0.3268 H         1 UNK         0.0731 
     80 H80        32.6220   -1.5152    0.5735 H         1 UNK         0.0731 
     81 H81        33.0704   -2.5804   -2.5223 H         1 UNK         0.1312 
     82 H82        31.8241    0.8683   -4.7323 H         1 UNK         0.1406 
     83 H83        30.7677    0.4838   -0.5925 H         1 UNK         0.1631 
     84 H84        30.4516    2.5241   -3.7661 H         1 UNK         0.0717 
     85 H85        30.8689    2.8571   -2.1037 H         1 UNK         0.0717 
     86 H86        28.7878   -0.4319   -2.8561 H         1 UNK         0.0934 
     87 H87        27.1452    0.1398   -2.8529 H         1 UNK         0.0934 
     88 H88        29.2172    0.7428   -5.0202 H         1 UNK         0.0739 
     89 H89        27.2834   -1.4287   -4.8094 H         1 UNK         0.3093 
     90 H90        27.7020   -2.4608   -8.1931 H         1 UNK         0.0818 
     91 H91        28.2190   -4.6337   -7.0702 H         1 UNK         0.0819 
     92 H92        29.6033   -3.5610   -7.0661 H         1 UNK         0.0819 
     93 H93        28.6649   -3.7732   -5.5937 H         1 UNK         0.0819 
     94 H94        26.1741   -3.5425   -6.0529 H         1 UNK         0.3041 
     95 H95        23.3262   -1.4662   -6.3045 H         1 UNK         0.0784 
     96 H96        23.0512   -2.9865   -8.2697 H         1 UNK         0.0793 
     97 H97        23.6933   -4.3285   -7.3328 H         1 UNK         0.0793 
     98 H98        22.1671   -3.5725   -6.8719 H         1 UNK         0.0793 
     99 H99        23.6300   -3.8282   -4.8576 H         1 UNK         0.3024 
    100 H100       23.6158   -2.7831   -2.1532 H         1 UNK         0.1171 
    101 H101       24.6357   -5.0860   -1.8044 H         1 UNK         0.0786 
    102 H102       23.6938   -4.9643   -3.2723 H         1 UNK         0.0786 
    103 H103       25.4544   -4.9278   -3.3525 H         1 UNK         0.0786 
    104 H104       25.2788   -2.2612   -0.7978 H         1 UNK         0.2977 
    105 H105       25.6380    0.3916   -4.9657 H         1 UNK         0.3127 
    106 H106       24.9624    3.0883   -5.0867 H         1 UNK         0.0770 
    107 H107       23.3761    0.7768   -6.3101 H         1 UNK         0.0814 
    108 H108       22.7340    2.3088   -5.7489 H         1 UNK         0.0814 
    109 H109       23.3940    1.1664   -4.5877 H         1 UNK         0.0814 
    110 H110       25.8898    0.9985   -7.7882 H         1 UNK         0.2983 
    111 H111       25.2077    2.7410   -9.9382 H         1 UNK         0.0947 
    112 H112       27.3798    0.5891   -9.6806 H         1 UNK         0.0806 
    113 H113       26.8467    1.3010  -11.1992 H         1 UNK         0.0806 
    114 H114       25.7308    0.3360  -10.2459 H         1 UNK         0.0806 
    115 H115       27.7162    3.0041   -7.5800 H         1 UNK         0.3000 
    116 H116       29.5939    4.1102   -7.2772 H         1 UNK         0.0850 
    117 H117       27.9316    5.9358   -7.1190 H         1 UNK         0.0810 
    118 H118       28.1027    6.2822   -8.8388 H         1 UNK         0.0810 
    119 H119       29.4526    6.5531   -7.7434 H         1 UNK         0.0810 
    120 H120       31.4569    3.1533  -10.3257 H         1 UNK         0.3040 
    121 H121       29.6732    1.7734   -8.4658 H         1 UNK         0.0766 
    122 H122       31.6081    0.7460   -7.2969 H         1 UNK         0.0812 
    123 H123       31.5856    2.4756   -6.9999 H         1 UNK         0.0812 
    124 H124       32.7266    1.7956   -8.1595 H         1 UNK         0.0812 
    125 H125       29.7188   -0.4603   -8.8683 H         1 UNK         0.3205 
    126 H126       30.8416   -1.2916  -11.5296 H         1 UNK         0.0754 
    127 H127       28.7063   -2.4864  -11.9394 H         1 UNK         0.0769 
    128 H128       28.4223   -0.7665  -11.7586 H         1 UNK         0.0769 
    129 H129       28.0363   -1.8651  -10.4366 H         1 UNK         0.0769 
    130 H130       32.1211   -1.6373   -9.0215 H         1 UNK         0.2981 
    131 H131       31.7228   -4.3661   -8.1253 H         1 UNK         0.0541 
    132 H132       34.3516   -4.6125  -11.1701 H         1 UNK         0.3459 
    133 H133       33.3496   -3.2002  -10.9512 H         1 UNK         0.3459 
    134 H134       33.7483   -3.9375   -6.7083 H         1 UNK         0.0612 
    135 H135       33.9627   -2.3875   -7.4912 H         1 UNK         0.0612 
    136 H136       34.0758   -2.0744   -4.6995 H         1 UNK         0.0624 
    137 H137       33.6448   -0.6238   -5.5803 H         1 UNK         0.0624 
@<TRIPOS>BOND
     1    1    2 1    
     2    1   72 1    
     3    1   73 1    
     4    1   74 1    
     5    2    3 2    
     6    2    4 am   BACKBONE|DICT|INTERRES
     7    4    5 1    
     8    4   75 1    
     9    5    6 1    
    10    5   35 1    
    11    5   76 1    
    12    6    7 1    
    13    6   77 1    
    14    6   78 1    
    15    7    8 1    
    16    8    9 1    
    17    8   79 1    
    18    8   80 1    
    19    9   10 ar   
    20    9   14 ar   
    21   10   11 ar   
    22   10   81 1    
    23   11   12 ar   
    24   11   71 1    
    25   12   13 ar   
    26   12   82 1    
    27   13   14 ar   
    28   13   15 1    
    29   14   83 1    
    30   15   16 1    
    31   15   84 1    
    32   15   85 1    
    33   16   17 1    
    34   17   18 1    
    35   17   86 1    
    36   17   87 1    
    37   18   19 1    
    38   18   37 1    
    39   18   88 1    
    40   19   20 am   BACKBONE|DICT|INTERRES
    41   19   89 1    
    42   20   21 2    
    43   20   22 1    
    44   22   23 1    
    45   22   24 1    
    46   22   90 1    
    47   23   91 1    
    48   23   92 1    
    49   23   93 1    
    50   24   25 am   BACKBONE|DICT|INTERRES
    51   24   94 1    
    52   25   26 2    
    53   25   27 1    
    54   27   28 1    
    55   27   29 1    
    56   27   95 1    
    57   28   96 1    
    58   28   97 1    
    59   28   98 1    
    60   29   30 am   BACKBONE|DICT|INTERRES
    61   29   99 1    
    62   30   31 2    
    63   30   32 1    
    64   32   33 1    
    65   32   34 1    
    66   32  100 1    
    67   33  101 1    
    68   33  102 1    
    69   33  103 1    
    70   34   35 am   BACKBONE|DICT|INTERRES
    71   34  104 1    
    72   35   36 2    
    73   37   38 2    
    74   37   39 am   BACKBONE|DICT|INTERRES
    75   39   40 1    
    76   39  105 1    
    77   40   41 1    
    78   40   42 1    
    79   40  106 1    
    80   41  107 1    
    81   41  108 1    
    82   41  109 1    
    83   42   43 2    
    84   42   44 am   BACKBONE|DICT|INTERRES
    85   44   45 1    
    86   44  110 1    
    87   45   46 1    
    88   45   47 1    
    89   45  111 1    
    90   46  112 1    
    91   46  113 1    
    92   46  114 1    
    93   47   48 2    
    94   47   49 am   BACKBONE|DICT|INTERRES
    95   49   50 1    
    96   49  115 1    
    97   50   51 1    
    98   50   52 1    
    99   50  116 1    
   100   51  117 1    
   101   51  118 1    
   102   51  119 1    
   103   52   53 2    
   104   52   54 am   BACKBONE|DICT|INTERRES
   105   54   55 1    
   106   54  120 1    
   107   55   56 1    
   108   55   57 1    
   109   55  121 1    
   110   56  122 1    
   111   56  123 1    
   112   56  124 1    
   113   57   58 2    
   114   57   59 am   BACKBONE|DICT|INTERRES
   115   59   60 1    
   116   59  125 1    
   117   60   61 1    
   118   60   62 1    
   119   60  126 1    
   120   61  127 1    
   121   61  128 1    
   122   61  129 1    
   123   62   63 2    
   124   62   64 am   BACKBONE|DICT|INTERRES
   125   64   65 1    
   126   64  130 1    
   127   65   66 1    
   128   65   69 1    
   129   65  131 1    
   130   66   67 am   BACKBONE|DICT|INTERRES
   131   66   68 2    
   132   67  132 1    
   133   67  133 1    
   134   69   70 1    
   135   69  134 1    
   136   69  135 1    
   137   70   71 1    
   138   71  136 1    
   139   71  137 1    
@<TRIPOS>SUBSTRUCTURE
     1 UNK         1 GROUP             0       ****    0 ROOT    
