@<TRIPOS>MOLECULE
3R137
137   139    1
SMALL
USER_CHARGES


@<TRIPOS>ATOM
      1 CA         27.5988   -6.4395    0.7606 C.3       0 UNK        -0.2020 
      2 C          27.4889   -5.1023    0.0448 C.2       0 UNK         0.4855 
      3 O          27.4694   -5.0726   -1.1857 O.2       0 UNK        -0.5197 
      4 N          27.4150   -4.0022    0.8078 N.am      1 UNK        -0.4892 
      5 CA         27.3171   -2.5929    0.3850 C.3       1 UNK         0.0835 
      6 C6         28.5015   -2.0969   -0.4853 C.3       12 UNK        -0.0855 
      7 S7         30.1095   -2.1905    0.3760 S.3       12 UNK        -0.2931 
      8 C8         30.9215   -3.6051   -0.4393 C.3       12 UNK         0.0378 
      9 C9         31.1350   -3.3741   -1.9291 C.ar      12 UNK        -0.0802 
     10 C10        32.0895   -2.4524   -2.3698 C.ar      12 UNK        -0.0944 
     11 C11        32.2826   -2.2348   -3.7367 C.ar      12 UNK        -0.0787 
     12 C12        31.5276   -2.9601   -4.6608 C.ar      12 UNK        -0.0862 
     13 C13        30.5574   -3.8730   -4.2369 C.ar      12 UNK        -0.0733 
     14 C14        30.3750   -4.0816   -2.8671 C.ar      12 UNK        -0.0832 
     15 C15        29.7209   -4.6577   -5.2440 C.3       12 UNK         0.0240 
     16 S16        29.1131   -3.6502   -6.6395 S.3       12 UNK        -0.2522 
     17 C17        27.9016   -2.5624   -5.8212 C.3       12 UNK        -0.0967 
     18 CA         27.2182   -1.6035   -6.8369 C.3       5 UNK         0.0660 
     19 N          25.7689   -1.5239   -6.6269 N.am      5 UNK        -0.4015 
     20 C          24.8981   -1.0898   -7.5513 C.2       4 UNK         0.4946 
     21 O          25.2281   -0.7198   -8.6769 O.2       4 UNK        -0.5353 
     22 CA         23.4119   -1.0245   -7.1551 C.3       4 UNK         0.0277 
     23 CB         22.7185   -2.3631   -7.4540 C.3       4 UNK        -0.1981 
     24 N          23.1980   -0.6671   -5.7521 N.am      4 UNK        -0.4209 
     25 C          23.5885    0.4844   -5.1877 C.2       3 UNK         0.4942 
     26 O          24.1117    1.4066   -5.8102 O.2       3 UNK        -0.5208 
     27 CA         23.4242    0.6087   -3.6639 C.3       3 UNK         0.0250 
     28 CB         22.1077    1.3247   -3.3238 C.3       3 UNK        -0.1990 
     29 N          23.4866   -0.6707   -2.9459 N.am      3 UNK        -0.4232 
     30 C          24.5271   -1.5161   -2.9628 C.2       2 UNK         0.4993 
     31 O          25.5433   -1.3479   -3.6443 O.2       2 UNK        -0.5286 
     32 CA         24.3849   -2.7928   -2.1206 C.3       2 UNK         0.0209 
     33 CB         24.1654   -4.0127   -3.0304 C.3       2 UNK        -0.1931 
     34 N          25.5716   -3.0170   -1.2982 N.am      2 UNK        -0.4546 
     35 C          25.9711   -2.2420   -0.2833 C.2       1 UNK         0.5154 
     36 O          25.3191   -1.2846    0.1375 O.2       1 UNK        -0.5181 
     37 C          27.8561   -0.1977   -6.8465 C.2       5 UNK         0.5014 
     38 O          28.7404    0.0743   -7.6628 O.2       5 UNK        -0.5248 
     39 N          27.3552    0.6890   -5.9726 N.am      6 UNK        -0.4434 
     40 CA         27.7172    2.1063   -5.9356 C.3       6 UNK         0.0363 
     41 CB         27.1830    2.7516   -4.6470 C.3       6 UNK        -0.1936 
     42 C          27.2231    2.8595   -7.1821 C.2       6 UNK         0.5081 
     43 O          27.9948    3.6146   -7.7712 O.2       6 UNK        -0.5248 
     44 N          25.9713    2.6080   -7.5943 N.am      7 UNK        -0.4718 
     45 CA         25.3586    3.1638   -8.8073 C.3       7 UNK         0.0273 
     46 CB         23.8694    2.7892   -8.8528 C.3       7 UNK        -0.1935 
     47 C          26.0655    2.7274  -10.1029 C.2       7 UNK         0.5018 
     48 O          26.1794    3.5315  -11.0284 O.2       7 UNK        -0.5186 
     49 N          26.5644    1.4834  -10.1303 N.am      8 UNK        -0.4240 
     50 CA         27.4104    0.9394  -11.1967 C.3       8 UNK         0.0235 
     51 CB         27.4455   -0.5937  -11.0755 C.3       8 UNK        -0.2000 
     52 C          28.8443    1.5076  -11.2099 C.2       8 UNK         0.4941 
     53 O          29.5701    1.2450  -12.1699 O.2       8 UNK        -0.5273 
     54 N          29.2313    2.2543  -10.1626 N.am      9 UNK        -0.4262 
     55 CA         30.5492    2.8539   -9.9288 C.3       9 UNK         0.0264 
     56 CB         30.8538    3.9486  -10.9742 C.3       9 UNK        -0.1955 
     57 C          31.6656    1.8007   -9.8048 C.2       9 UNK         0.5031 
     58 O          32.7531    1.9826  -10.3589 O.2       9 UNK        -0.5390 
     59 N          31.3758    0.7102   -9.0810 N.am      10 UNK        -0.4204 
     60 CA         32.3276   -0.3623   -8.7909 C.3       10 UNK         0.0237 
     61 CB         31.5594   -1.5532   -8.2047 C.3       10 UNK        -0.1985 
     62 C          33.4502    0.0896   -7.8378 C.2       10 UNK         0.4970 
     63 O          33.2872    1.0695   -7.1066 O.2       10 UNK        -0.4914 
     64 N          34.5620   -0.6558   -7.8643 N.am      11 UNK        -0.4285 
     65 CA         35.8022   -0.4185   -7.0993 C.3       11 UNK         0.1007 
     66 C          36.6300    0.8192   -7.5660 C.2       11 UNK         0.5703 
     67 N          36.2980    1.4672   -8.6768 N.am      11 UNK        -0.7361 
     68 O          37.6178    1.1802   -6.9299 O.2       11 UNK        -0.4986 
     69 C69        35.6147   -0.4459   -5.5520 C.3       12 UNK        -0.0947 
     70 S70        34.7645   -1.9401   -4.9375 S.3       12 UNK        -0.2240 
     71 C71        33.2706   -1.1883   -4.2241 C.3       12 UNK         0.0194 
     72 H72        28.5153   -6.9482    0.4628 H         1 UNK         0.0906 
     73 H73        26.7548   -7.0760    0.4964 H         1 UNK         0.0906 
     74 H74        27.6117   -6.3246    1.8442 H         1 UNK         0.0906 
     75 H75        27.4164   -4.1250    1.8114 H         1 UNK         0.3140 
     76 H76        27.3413   -2.0165    1.3118 H         1 UNK         0.1085 
     77 H77        28.3544   -1.0497   -0.7574 H         1 UNK         0.0836 
     78 H78        28.5385   -2.6371   -1.4307 H         1 UNK         0.0836 
     79 H79        31.8879   -3.7764    0.0370 H         1 UNK         0.0731 
     80 H80        30.3362   -4.5083   -0.2654 H         1 UNK         0.0731 
     81 H81        32.6682   -1.8945   -1.6461 H         1 UNK         0.1312 
     82 H82        31.6929   -2.8065   -5.7154 H         1 UNK         0.1406 
     83 H83        29.6352   -4.7942   -2.5291 H         1 UNK         0.1631 
     84 H84        28.8657   -5.1275   -4.7553 H         1 UNK         0.0717 
     85 H85        30.3328   -5.4679   -5.6422 H         1 UNK         0.0717 
     86 H86        27.1640   -3.2116   -5.3459 H         1 UNK         0.0934 
     87 H87        28.3833   -2.0241   -5.0016 H         1 UNK         0.0934 
     88 H88        27.3544   -2.0086   -7.8424 H         1 UNK         0.0739 
     89 H89        25.4392   -1.7314   -5.6909 H         1 UNK         0.3093 
     90 H90        22.9413   -0.2529   -7.7671 H         1 UNK         0.0818 
     91 H91        22.8461   -2.6418   -8.5011 H         1 UNK         0.0819 
     92 H92        23.1248   -3.1749   -6.8491 H         1 UNK         0.0819 
     93 H93        21.6463   -2.3062   -7.2652 H         1 UNK         0.0819 
     94 H94        22.7654   -1.3631   -5.1630 H         1 UNK         0.3041 
     95 H95        24.2509    1.2236   -3.3021 H         1 UNK         0.0784 
     96 H96        22.0474    2.2902   -3.8285 H         1 UNK         0.0793 
     97 H97        21.2384    0.7418   -3.6310 H         1 UNK         0.0793 
     98 H98        22.0242    1.5165   -2.2538 H         1 UNK         0.0793 
     99 H99        22.6905   -0.8936   -2.3653 H         1 UNK         0.3024 
    100 H100       23.5263   -2.6932   -1.4528 H         1 UNK         0.1171 
    101 H101       23.2737   -3.8888   -3.6463 H         1 UNK         0.0786 
    102 H102       25.0094   -4.1708   -3.7036 H         1 UNK         0.0786 
    103 H103       24.0308   -4.9231   -2.4459 H         1 UNK         0.0786 
    104 H104       26.1827   -3.7894   -1.5542 H         1 UNK         0.2977 
    105 H105       26.6232    0.3867   -5.3445 H         1 UNK         0.3127 
    106 H106       28.8075    2.1720   -5.9188 H         1 UNK         0.0770 
    107 H107       26.0944    2.7243   -4.5964 H         1 UNK         0.0814 
    108 H108       27.4836    3.7983   -4.5852 H         1 UNK         0.0814 
    109 H109       27.5728    2.2503   -3.7610 H         1 UNK         0.0814 
    110 H110       25.3749    2.0233   -7.0113 H         1 UNK         0.2983 
    111 H111       25.4354    4.2514   -8.7438 H         1 UNK         0.0947 
    112 H112       23.3801    3.2382   -9.7181 H         1 UNK         0.0806 
    113 H113       23.3436    3.1394   -7.9642 H         1 UNK         0.0806 
    114 H114       23.7291    1.7106   -8.9222 H         1 UNK         0.0806 
    115 H115       26.3449    0.8562   -9.3626 H         1 UNK         0.3000 
    116 H116       26.9545    1.1954  -12.1554 H         1 UNK         0.0850 
    117 H117       28.0386   -1.0387  -11.8755 H         1 UNK         0.0810 
    118 H118       26.4445   -1.0201  -11.1414 H         1 UNK         0.0810 
    119 H119       27.8840   -0.9118  -10.1291 H         1 UNK         0.0810 
    120 H120       28.5578    2.4180   -9.4225 H         1 UNK         0.3040 
    121 H121       30.4903    3.3418   -8.9548 H         1 UNK         0.0766 
    122 H122       30.9845    3.5317  -11.9732 H         1 UNK         0.0812 
    123 H123       31.7712    4.4822  -10.7233 H         1 UNK         0.0812 
    124 H124       30.0525    4.6861  -11.0197 H         1 UNK         0.0812 
    125 H125       30.4614    0.6338   -8.6441 H         1 UNK         0.3205 
    126 H126       32.7816   -0.6721   -9.7347 H         1 UNK         0.0754 
    127 H127       32.2219   -2.3961   -8.0052 H         1 UNK         0.0769 
    128 H128       30.7869   -1.9041   -8.8895 H         1 UNK         0.0769 
    129 H129       31.0713   -1.2818   -7.2684 H         1 UNK         0.0769 
    130 H130       34.5989   -1.4413   -8.4976 H         1 UNK         0.2981 
    131 H131       36.4389   -1.2681   -7.3478 H         1 UNK         0.0541 
    132 H132       36.8521    2.2562   -8.9700 H         1 UNK         0.3459 
    133 H133       35.4856    1.1963   -9.2080 H         1 UNK         0.3459 
    134 H134       35.0841    0.4467   -5.2172 H         1 UNK         0.0612 
    135 H135       36.5863   -0.4128   -5.0562 H         1 UNK         0.0612 
    136 H136       33.5603   -0.5235   -3.4088 H         1 UNK         0.0624 
    137 H137       32.7825   -0.5637   -4.9727 H         1 UNK         0.0624 
@<TRIPOS>BOND
     1    1    2 1    
     2    1   72 1    
     3    1   73 1    
     4    1   74 1    
     5    2    3 2    
     6    2    4 am   BACKBONE|DICT|INTERRES
     7    4    5 1    
     8    4   75 1    
     9    5    6 1    
    10    5   35 1    
    11    5   76 1    
    12    6    7 1    
    13    6   77 1    
    14    6   78 1    
    15    7    8 1    
    16    8    9 1    
    17    8   79 1    
    18    8   80 1    
    19    9   10 ar   
    20    9   14 ar   
    21   10   11 ar   
    22   10   81 1    
    23   11   12 ar   
    24   11   71 1    
    25   12   13 ar   
    26   12   82 1    
    27   13   14 ar   
    28   13   15 1    
    29   14   83 1    
    30   15   16 1    
    31   15   84 1    
    32   15   85 1    
    33   16   17 1    
    34   17   18 1    
    35   17   86 1    
    36   17   87 1    
    37   18   19 1    
    38   18   37 1    
    39   18   88 1    
    40   19   20 am   BACKBONE|DICT|INTERRES
    41   19   89 1    
    42   20   21 2    
    43   20   22 1    
    44   22   23 1    
    45   22   24 1    
    46   22   90 1    
    47   23   91 1    
    48   23   92 1    
    49   23   93 1    
    50   24   25 am   BACKBONE|DICT|INTERRES
    51   24   94 1    
    52   25   26 2    
    53   25   27 1    
    54   27   28 1    
    55   27   29 1    
    56   27   95 1    
    57   28   96 1    
    58   28   97 1    
    59   28   98 1    
    60   29   30 am   BACKBONE|DICT|INTERRES
    61   29   99 1    
    62   30   31 2    
    63   30   32 1    
    64   32   33 1    
    65   32   34 1    
    66   32  100 1    
    67   33  101 1    
    68   33  102 1    
    69   33  103 1    
    70   34   35 am   BACKBONE|DICT|INTERRES
    71   34  104 1    
    72   35   36 2    
    73   37   38 2    
    74   37   39 am   BACKBONE|DICT|INTERRES
    75   39   40 1    
    76   39  105 1    
    77   40   41 1    
    78   40   42 1    
    79   40  106 1    
    80   41  107 1    
    81   41  108 1    
    82   41  109 1    
    83   42   43 2    
    84   42   44 am   BACKBONE|DICT|INTERRES
    85   44   45 1    
    86   44  110 1    
    87   45   46 1    
    88   45   47 1    
    89   45  111 1    
    90   46  112 1    
    91   46  113 1    
    92   46  114 1    
    93   47   48 2    
    94   47   49 am   BACKBONE|DICT|INTERRES
    95   49   50 1    
    96   49  115 1    
    97   50   51 1    
    98   50   52 1    
    99   50  116 1    
   100   51  117 1    
   101   51  118 1    
   102   51  119 1    
   103   52   53 2    
   104   52   54 am   BACKBONE|DICT|INTERRES
   105   54   55 1    
   106   54  120 1    
   107   55   56 1    
   108   55   57 1    
   109   55  121 1    
   110   56  122 1    
   111   56  123 1    
   112   56  124 1    
   113   57   58 2    
   114   57   59 am   BACKBONE|DICT|INTERRES
   115   59   60 1    
   116   59  125 1    
   117   60   61 1    
   118   60   62 1    
   119   60  126 1    
   120   61  127 1    
   121   61  128 1    
   122   61  129 1    
   123   62   63 2    
   124   62   64 am   BACKBONE|DICT|INTERRES
   125   64   65 1    
   126   64  130 1    
   127   65   66 1    
   128   65   69 1    
   129   65  131 1    
   130   66   67 am   BACKBONE|DICT|INTERRES
   131   66   68 2    
   132   67  132 1    
   133   67  133 1    
   134   69   70 1    
   135   69  134 1    
   136   69  135 1    
   137   70   71 1    
   138   71  136 1    
   139   71  137 1    
@<TRIPOS>SUBSTRUCTURE
     1 UNK         1 GROUP             0       ****    0 ROOT    
