@<TRIPOS>MOLECULE
3R137
137   139    1
SMALL
USER_CHARGES


@<TRIPOS>ATOM
      1 CA         25.2864   -6.0416   -5.8130 C.3       0 UNK        -0.2020 
      2 C          25.5125   -5.5055   -4.4078 C.2       0 UNK         0.4855 
      3 O          24.5543   -5.1097   -3.7436 O.2       0 UNK        -0.5197 
      4 N          26.7753   -5.4767   -3.9596 N.am      1 UNK        -0.4892 
      5 CA         27.2258   -4.9828   -2.6521 C.3       1 UNK         0.0835 
      6 C6         28.7555   -5.1761   -2.5026 C.3       12 UNK        -0.0855 
      7 S7         29.3212   -5.0090   -0.7785 S.3       12 UNK        -0.2931 
      8 C8         31.0423   -4.4573   -1.0233 C.3       12 UNK         0.0378 
      9 C9         31.1532   -3.0171   -1.5150 C.ar      12 UNK        -0.0802 
     10 C10        31.8854   -2.7191   -2.6706 C.ar      12 UNK        -0.0944 
     11 C11        32.0563   -1.3920   -3.0778 C.ar      12 UNK        -0.0787 
     12 C12        31.4802   -0.3630   -2.3298 C.ar      12 UNK        -0.0862 
     13 C13        30.7190   -0.6457   -1.1926 C.ar      12 UNK        -0.0733 
     14 C14        30.5702   -1.9752   -0.7848 C.ar      12 UNK        -0.0832 
     15 C15        30.0679    0.4767   -0.3894 C.3       12 UNK         0.0240 
     16 S16        29.2164    1.7208   -1.4219 S.3       12 UNK        -0.2522 
     17 C17        28.0227    0.6981   -2.3467 C.3       12 UNK        -0.0967 
     18 CA         28.1589    0.8684   -3.8842 C.3       5 UNK         0.0660 
     19 N          27.7401   -0.3395   -4.6013 N.am      5 UNK        -0.4015 
     20 C          27.7545   -0.5190   -5.9302 C.2       4 UNK         0.4946 
     21 O          28.2162    0.2919   -6.7293 O.2       4 UNK        -0.5353 
     22 CA         27.0643   -1.7851   -6.4648 C.3       4 UNK         0.0277 
     23 CB         28.0013   -3.0015   -6.4257 C.3       4 UNK        -0.1981 
     24 N          25.8323   -2.0759   -5.7290 N.am      4 UNK        -0.4209 
     25 C          24.7093   -1.3491   -5.8260 C.2       3 UNK         0.4942 
     26 O          24.5741   -0.4027   -6.5996 O.2       3 UNK        -0.5208 
     27 CA         23.5604   -1.7044   -4.8682 C.3       3 UNK         0.0250 
     28 CB         22.6497   -2.7810   -5.4782 C.3       3 UNK        -0.1990 
     29 N          24.0464   -2.1399   -3.5562 N.am      3 UNK        -0.4232 
     30 C          24.6169   -1.3118   -2.6675 C.2       2 UNK         0.4993 
     31 O          24.7393   -0.1001   -2.8503 O.2       2 UNK        -0.5286 
     32 CA         25.2017   -1.9417   -1.3891 C.3       2 UNK         0.0209 
     33 CB         24.1287   -2.0313   -0.2931 C.3       2 UNK        -0.1931 
     34 N          25.7963   -3.2662   -1.6048 N.am      2 UNK        -0.4546 
     35 C          26.8101   -3.5117   -2.4465 C.2       1 UNK         0.5154 
     36 O          27.3657   -2.6340   -3.1055 O.2       1 UNK        -0.5181 
     37 C          27.3976    2.1185   -4.3753 C.2       5 UNK         0.5014 
     38 O          28.0236    3.1389   -4.6661 O.2       5 UNK        -0.5248 
     39 N          26.0645    2.0016   -4.4824 N.am      6 UNK        -0.4434 
     40 CA         25.1757    3.0411   -5.0044 C.3       6 UNK         0.0363 
     41 CB         23.7140    2.6509   -4.7329 C.3       6 UNK        -0.1936 
     42 C          25.3934    3.3337   -6.5001 C.2       6 UNK         0.5081 
     43 O          25.3842    4.5020   -6.8895 O.2       6 UNK        -0.5248 
     44 N          25.5800    2.2816   -7.3103 N.am      7 UNK        -0.4718 
     45 CA         25.8347    2.3811   -8.7517 C.3       7 UNK         0.0273 
     46 CB         25.6606    0.9985   -9.3997 C.3       7 UNK        -0.1935 
     47 C          27.2190    2.9589   -9.0970 C.2       7 UNK         0.5018 
     48 O          27.3443    3.6288  -10.1235 O.2       7 UNK        -0.5186 
     49 N          28.2180    2.6868   -8.2450 N.am      8 UNK        -0.4240 
     50 CA         29.6352    3.0237   -8.3955 C.3       8 UNK         0.0235 
     51 CB         29.8585    4.5537   -8.4137 C.3       8 UNK        -0.2000 
     52 C          30.2534    2.2589   -9.5811 C.2       8 UNK         0.4941 
     53 O          30.0650    1.0442   -9.6611 O.2       8 UNK        -0.5273 
     54 N          31.0081    2.9495  -10.4516 N.am      9 UNK        -0.4262 
     55 CA         31.6907    2.4135  -11.6423 C.3       9 UNK         0.0264 
     56 CB         30.6600    2.0555  -12.7344 C.3       9 UNK        -0.1955 
     57 C          32.6413    1.2425  -11.3123 C.2       9 UNK         0.5031 
     58 O          32.6179    0.2103  -11.9860 O.2       9 UNK        -0.5390 
     59 N          33.4212    1.4181  -10.2346 N.am      10 UNK        -0.4204 
     60 CA         34.3277    0.4406   -9.6148 C.3       10 UNK         0.0237 
     61 CB         35.4715    0.0527  -10.5776 C.3       10 UNK        -0.1985 
     62 C          33.6219   -0.7936   -9.0096 C.2       10 UNK         0.4970 
     63 O          34.2977   -1.7811   -8.7161 O.2       10 UNK        -0.4914 
     64 N          32.2981   -0.7142   -8.8068 N.am      11 UNK        -0.4285 
     65 CA         31.4398   -1.7478   -8.2024 C.3       11 UNK         0.1007 
     66 C          31.2775   -3.0307   -9.0727 C.2       11 UNK         0.5703 
     67 N          31.5449   -2.9805  -10.3732 N.am      11 UNK        -0.7361 
     68 O          30.8773   -4.0805   -8.5754 O.2       11 UNK        -0.4986 
     69 C69        31.7945   -2.0509   -6.7154 C.3       12 UNK        -0.0947 
     70 S70        31.8235   -0.5386   -5.6949 S.3       12 UNK        -0.2240 
     71 C71        32.8831   -1.0460   -4.3060 C.3       12 UNK         0.0194 
     72 H72        26.1833   -6.5070   -6.2212 H         1 UNK         0.0906 
     73 H73        24.4931   -6.7886   -5.8059 H         1 UNK         0.0906 
     74 H74        24.9885   -5.2343   -6.4813 H         1 UNK         0.0906 
     75 H75        27.5110   -5.8085   -4.5668 H         1 UNK         0.3140 
     76 H76        26.7288   -5.5933   -1.8950 H         1 UNK         0.1085 
     77 H77        29.0400   -6.1766   -2.8326 H         1 UNK         0.0836 
     78 H78        29.3013   -4.4826   -3.1463 H         1 UNK         0.0836 
     79 H79        31.5406   -5.1447   -1.7089 H         1 UNK         0.0731 
     80 H80        31.5714   -4.5389   -0.0729 H         1 UNK         0.0731 
     81 H81        32.3426   -3.5161   -3.2410 H         1 UNK         0.1312 
     82 H82        31.6148    0.6627   -2.6452 H         1 UNK         0.1406 
     83 H83        30.0029   -2.2052    0.1070 H         1 UNK         0.1631 
     84 H84        30.8370    0.9771    0.2001 H         1 UNK         0.0717 
     85 H85        29.3469    0.0715    0.3225 H         1 UNK         0.0717 
     86 H86        28.1816   -0.3449   -2.0725 H         1 UNK         0.0934 
     87 H87        27.0169    0.9345   -1.9960 H         1 UNK         0.0934 
     88 H88        29.2141    1.0042   -4.1316 H         1 UNK         0.0739 
     89 H89        27.4330   -1.1205   -4.0233 H         1 UNK         0.3093 
     90 H90        26.7965   -1.6052   -7.5080 H         1 UNK         0.0818 
     91 H91        27.4948   -3.9075   -6.7574 H         1 UNK         0.0819 
     92 H92        28.8461   -2.8481   -7.0945 H         1 UNK         0.0819 
     93 H93        28.4052   -3.1830   -5.4297 H         1 UNK         0.0819 
     94 H94        25.8855   -2.7878   -5.0153 H         1 UNK         0.3041 
     95 H95        22.9616   -0.8022   -4.7247 H         1 UNK         0.0784 
     96 H96        22.2446   -2.4496   -6.4354 H         1 UNK         0.0793 
     97 H97        23.1830   -3.7141   -5.6572 H         1 UNK         0.0793 
     98 H98        21.8033   -2.9992   -4.8268 H         1 UNK         0.0793 
     99 H99        24.0258   -3.1366   -3.3621 H         1 UNK         0.3024 
    100 H100       25.9949   -1.2792   -1.0364 H         1 UNK         0.1171 
    101 H101       23.6854   -1.0530   -0.1009 H         1 UNK         0.0786 
    102 H102       24.5510   -2.3835    0.6483 H         1 UNK         0.0786 
    103 H103       23.3194   -2.7068   -0.5731 H         1 UNK         0.0786 
    104 H104       25.3576   -4.0434   -1.1314 H         1 UNK         0.2977 
    105 H105       25.6231    1.1472   -4.1540 H         1 UNK         0.3127 
    106 H106       25.3870    3.9610   -4.4549 H         1 UNK         0.0770 
    107 H107       23.4405    1.7273   -5.2438 H         1 UNK         0.0814 
    108 H108       23.0321    3.4291   -5.0782 H         1 UNK         0.0814 
    109 H109       23.5324    2.5090   -3.6673 H         1 UNK         0.0814 
    110 H110       25.5022    1.3451   -6.9246 H         1 UNK         0.2983 
    111 H111       25.0857    3.0521   -9.1779 H         1 UNK         0.0947 
    112 H112       25.8071    1.0518  -10.4793 H         1 UNK         0.0806 
    113 H113       24.6605    0.6006   -9.2267 H         1 UNK         0.0806 
    114 H114       26.3811    0.2797   -9.0084 H         1 UNK         0.0806 
    115 H115       28.0249    2.0113   -7.5082 H         1 UNK         0.3000 
    116 H116       30.1238    2.6318   -7.5019 H         1 UNK         0.0850 
    117 H117       30.9197    4.8001   -8.3621 H         1 UNK         0.0810 
    118 H118       29.3842    5.0233   -7.5515 H         1 UNK         0.0810 
    119 H119       29.4490    5.0238   -9.3084 H         1 UNK         0.0810 
    120 H120       31.1095    3.9434  -10.2975 H         1 UNK         0.3040 
    121 H121       32.3187    3.2162  -12.0318 H         1 UNK         0.0766 
    122 H122       30.0212    2.9062  -12.9712 H         1 UNK         0.0812 
    123 H123       30.0168    1.2298  -12.4276 H         1 UNK         0.0812 
    124 H124       31.1561    1.7556  -13.6584 H         1 UNK         0.0812 
    125 H125       33.3455    2.3022   -9.7499 H         1 UNK         0.3205 
    126 H126       34.7810    0.9571   -8.7675 H         1 UNK         0.0754 
    127 H127       36.2336   -0.5355  -10.0648 H         1 UNK         0.0769 
    128 H128       35.9662    0.9353  -10.9828 H         1 UNK         0.0769 
    129 H129       35.1121   -0.5456  -11.4154 H         1 UNK         0.0769 
    130 H130       31.7938    0.1036   -9.1294 H         1 UNK         0.2981 
    131 H131       30.4427   -1.3062   -8.1977 H         1 UNK         0.0541 
    132 H132       31.8598   -2.1201  -10.7966 H         1 UNK         0.3459 
    133 H133       31.4300   -3.8095  -10.9341 H         1 UNK         0.3459 
    134 H134       31.0704   -2.7339   -6.2696 H         1 UNK         0.0612 
    135 H135       32.7615   -2.5514   -6.6552 H         1 UNK         0.0612 
    136 H136       33.5532   -0.2200   -4.0637 H         1 UNK         0.0624 
    137 H137       33.5257   -1.8793   -4.5927 H         1 UNK         0.0624 
@<TRIPOS>BOND
     1    1    2 1    
     2    1   72 1    
     3    1   73 1    
     4    1   74 1    
     5    2    3 2    
     6    2    4 am   BACKBONE|DICT|INTERRES
     7    4    5 1    
     8    4   75 1    
     9    5    6 1    
    10    5   35 1    
    11    5   76 1    
    12    6    7 1    
    13    6   77 1    
    14    6   78 1    
    15    7    8 1    
    16    8    9 1    
    17    8   79 1    
    18    8   80 1    
    19    9   10 ar   
    20    9   14 ar   
    21   10   11 ar   
    22   10   81 1    
    23   11   12 ar   
    24   11   71 1    
    25   12   13 ar   
    26   12   82 1    
    27   13   14 ar   
    28   13   15 1    
    29   14   83 1    
    30   15   16 1    
    31   15   84 1    
    32   15   85 1    
    33   16   17 1    
    34   17   18 1    
    35   17   86 1    
    36   17   87 1    
    37   18   19 1    
    38   18   37 1    
    39   18   88 1    
    40   19   20 am   BACKBONE|DICT|INTERRES
    41   19   89 1    
    42   20   21 2    
    43   20   22 1    
    44   22   23 1    
    45   22   24 1    
    46   22   90 1    
    47   23   91 1    
    48   23   92 1    
    49   23   93 1    
    50   24   25 am   BACKBONE|DICT|INTERRES
    51   24   94 1    
    52   25   26 2    
    53   25   27 1    
    54   27   28 1    
    55   27   29 1    
    56   27   95 1    
    57   28   96 1    
    58   28   97 1    
    59   28   98 1    
    60   29   30 am   BACKBONE|DICT|INTERRES
    61   29   99 1    
    62   30   31 2    
    63   30   32 1    
    64   32   33 1    
    65   32   34 1    
    66   32  100 1    
    67   33  101 1    
    68   33  102 1    
    69   33  103 1    
    70   34   35 am   BACKBONE|DICT|INTERRES
    71   34  104 1    
    72   35   36 2    
    73   37   38 2    
    74   37   39 am   BACKBONE|DICT|INTERRES
    75   39   40 1    
    76   39  105 1    
    77   40   41 1    
    78   40   42 1    
    79   40  106 1    
    80   41  107 1    
    81   41  108 1    
    82   41  109 1    
    83   42   43 2    
    84   42   44 am   BACKBONE|DICT|INTERRES
    85   44   45 1    
    86   44  110 1    
    87   45   46 1    
    88   45   47 1    
    89   45  111 1    
    90   46  112 1    
    91   46  113 1    
    92   46  114 1    
    93   47   48 2    
    94   47   49 am   BACKBONE|DICT|INTERRES
    95   49   50 1    
    96   49  115 1    
    97   50   51 1    
    98   50   52 1    
    99   50  116 1    
   100   51  117 1    
   101   51  118 1    
   102   51  119 1    
   103   52   53 2    
   104   52   54 am   BACKBONE|DICT|INTERRES
   105   54   55 1    
   106   54  120 1    
   107   55   56 1    
   108   55   57 1    
   109   55  121 1    
   110   56  122 1    
   111   56  123 1    
   112   56  124 1    
   113   57   58 2    
   114   57   59 am   BACKBONE|DICT|INTERRES
   115   59   60 1    
   116   59  125 1    
   117   60   61 1    
   118   60   62 1    
   119   60  126 1    
   120   61  127 1    
   121   61  128 1    
   122   61  129 1    
   123   62   63 2    
   124   62   64 am   BACKBONE|DICT|INTERRES
   125   64   65 1    
   126   64  130 1    
   127   65   66 1    
   128   65   69 1    
   129   65  131 1    
   130   66   67 am   BACKBONE|DICT|INTERRES
   131   66   68 2    
   132   67  132 1    
   133   67  133 1    
   134   69   70 1    
   135   69  134 1    
   136   69  135 1    
   137   70   71 1    
   138   71  136 1    
   139   71  137 1    
@<TRIPOS>SUBSTRUCTURE
     1 UNK         1 GROUP             0       ****    0 ROOT    
