@<TRIPOS>MOLECULE
3R137
137   139    1
SMALL
USER_CHARGES


@<TRIPOS>ATOM
      1 CA         29.9707   -0.8328    2.9371 C.3       0 UNK        -0.2020 
      2 C          29.4385   -0.8757    1.5124 C.2       0 UNK         0.4855 
      3 O          29.0197    0.1551    0.9840 O.2       0 UNK        -0.5197 
      4 N          29.4600   -2.0574    0.8841 N.am      1 UNK        -0.4892 
      5 CA         28.9510   -2.2977   -0.4714 C.3       1 UNK         0.0835 
      6 C6         29.4237   -3.6620   -1.0325 C.3       12 UNK        -0.0855 
      7 S7         31.2425   -3.8220   -1.0592 S.3       12 UNK        -0.2931 
      8 C8         31.4632   -5.3407   -2.0408 C.3       12 UNK         0.0378 
      9 C9         31.2095   -5.0908   -3.5196 C.ar      12 UNK        -0.0802 
     10 C10        32.2000   -4.4990   -4.3095 C.ar      12 UNK        -0.0944 
     11 C11        31.9638   -4.2321   -5.6613 C.ar      12 UNK        -0.0787 
     12 C12        30.7308   -4.5730   -6.2235 C.ar      12 UNK        -0.0862 
     13 C13        29.7262   -5.1460   -5.4387 C.ar      12 UNK        -0.0733 
     14 C14        29.9791   -5.4257   -4.0930 C.ar      12 UNK        -0.0832 
     15 C15        28.3483   -5.4025   -6.0326 C.3       12 UNK         0.0240 
     16 S16        27.0731   -4.3291   -5.2886 S.3       12 UNK        -0.2522 
     17 C17        27.7329   -2.6513   -5.5863 C.3       12 UNK        -0.0967 
     18 CA         26.9955   -1.9108   -6.7248 C.3       5 UNK         0.0660 
     19 N          25.5689   -1.7284   -6.4528 N.am      5 UNK        -0.4015 
     20 C          24.6648   -1.3296   -7.3579 C.2       4 UNK         0.4946 
     21 O          24.9252   -1.1153   -8.5416 O.2       4 UNK        -0.5353 
     22 CA         23.2351   -1.0917   -6.8442 C.3       4 UNK         0.0277 
     23 CB         22.4502   -2.4124   -6.7939 C.3       4 UNK        -0.1981 
     24 N          23.2095   -0.4511   -5.5261 N.am      4 UNK        -0.4209 
     25 C          23.6486    0.7928   -5.2825 C.2       3 UNK         0.4942 
     26 O          24.0730    1.5512   -6.1523 O.2       3 UNK        -0.5208 
     27 CA         23.6608    1.2516   -3.8148 C.3       3 UNK         0.0250 
     28 CB         22.2935    1.8305   -3.4178 C.3       3 UNK        -0.1990 
     29 N          24.0427    0.1932   -2.8730 N.am      3 UNK        -0.4232 
     30 C          25.2245   -0.4382   -2.8760 C.2       2 UNK         0.4993 
     31 O          26.1207   -0.2218   -3.6975 O.2       2 UNK        -0.5286 
     32 CA         25.4215   -1.5262   -1.8180 C.3       2 UNK         0.0209 
     33 CB         24.7728   -2.8490   -2.2677 C.3       2 UNK        -0.1931 
     34 N          26.8544   -1.7154   -1.6083 N.am      2 UNK        -0.4546 
     35 C          27.4099   -2.2152   -0.5000 C.2       1 UNK         0.5154 
     36 O          26.7564   -2.6287    0.4626 O.2       1 UNK        -0.5181 
     37 C          27.6726   -0.5615   -7.0232 C.2       5 UNK         0.5014 
     38 O          28.3838   -0.4587   -8.0208 O.2       5 UNK        -0.5248 
     39 N          27.4021    0.4489   -6.1818 N.am      6 UNK        -0.4434 
     40 CA         27.9023    1.8201   -6.3229 C.3       6 UNK         0.0363 
     41 CB         27.5116    2.6318   -5.0782 C.3       6 UNK        -0.1936 
     42 C          27.4229    2.5292   -7.6040 C.2       6 UNK         0.5081 
     43 O          28.1488    3.3662   -8.1409 O.2       6 UNK        -0.5248 
     44 N          26.2154    2.1912   -8.0760 N.am      7 UNK        -0.4718 
     45 CA         25.6807    2.6432   -9.3608 C.3       7 UNK         0.0273 
     46 CB         24.1602    2.4207   -9.3914 C.3       7 UNK        -0.1935 
     47 C          26.3539    1.9455  -10.5556 C.2       7 UNK         0.5018 
     48 O          26.5407    2.5823  -11.5933 O.2       7 UNK        -0.5186 
     49 N          26.6909    0.6573  -10.3996 N.am      8 UNK        -0.4240 
     50 CA         27.3213   -0.1654  -11.4324 C.3       8 UNK         0.0235 
     51 CB         27.1491   -1.6545  -11.0897 C.3       8 UNK        -0.2000 
     52 C          28.8036    0.1724  -11.6602 C.2       8 UNK         0.4941 
     53 O          29.2315    0.2094  -12.8154 O.2       8 UNK        -0.5273 
     54 N          29.5635    0.4017  -10.5817 N.am      9 UNK        -0.4262 
     55 CA         30.9970    0.6912  -10.6260 C.3       9 UNK         0.0264 
     56 CB         31.7866   -0.6268  -10.7392 C.3       9 UNK        -0.1955 
     57 C          31.4189    1.4786   -9.3811 C.2       9 UNK         0.5031 
     58 O          30.7152    1.4629   -8.3709 O.2       9 UNK        -0.5390 
     59 N          32.5874    2.1297   -9.4517 N.am      10 UNK        -0.4204 
     60 CA         33.1818    2.9347   -8.3765 C.3       10 UNK         0.0237 
     61 CB         34.2141    3.8996   -8.9912 C.3       10 UNK        -0.1985 
     62 C          33.7742    2.0787   -7.2343 C.2       10 UNK         0.4970 
     63 O          34.9493    2.2278   -6.8935 O.2       10 UNK        -0.4914 
     64 N          32.9496    1.1910   -6.6713 N.am      11 UNK        -0.4285 
     65 CA         33.2874    0.2804   -5.5668 C.3       11 UNK         0.1007 
     66 C          33.3296    0.9585   -4.1666 C.2       11 UNK         0.5703 
     67 N          32.8620    2.1914   -4.0060 N.am      11 UNK        -0.7361 
     68 O          33.8092    0.3571   -3.2086 O.2       11 UNK        -0.4986 
     69 C69        32.3561   -0.9592   -5.5584 C.3       12 UNK        -0.0947 
     70 S70        32.4688   -1.9189   -7.1076 S.3       12 UNK        -0.2240 
     71 C71        33.0257   -3.5479   -6.5110 C.3       12 UNK         0.0194 
     72 H72        30.8026   -0.1323    3.0061 H         1 UNK         0.0906 
     73 H73        29.1885   -0.5016    3.6197 H         1 UNK         0.0906 
     74 H74        30.3215   -1.8090    3.2715 H         1 UNK         0.0906 
     75 H75        29.8098   -2.8736    1.3652 H         1 UNK         0.3140 
     76 H76        29.3450   -1.5082   -1.1159 H         1 UNK         0.1085 
     77 H77        29.0125   -4.4868   -0.4468 H         1 UNK         0.0836 
     78 H78        29.0492   -3.7890   -2.0494 H         1 UNK         0.0836 
     79 H79        32.4830   -5.7038   -1.9042 H         1 UNK         0.0731 
     80 H80        30.8072   -6.1247   -1.6590 H         1 UNK         0.0731 
     81 H81        33.1466   -4.2264   -3.8629 H         1 UNK         0.1312 
     82 H82        30.5406   -4.3459   -7.2639 H         1 UNK         0.1406 
     83 H83        29.1999   -5.8647   -3.4844 H         1 UNK         0.1631 
     84 H84        28.0739   -6.4458   -5.8713 H         1 UNK         0.0717 
     85 H85        28.3532   -5.2479   -7.1127 H         1 UNK         0.0717 
     86 H86        27.6596   -2.0969   -4.6506 H         1 UNK         0.0934 
     87 H87        28.7992   -2.7000   -5.8061 H         1 UNK         0.0934 
     88 H88        27.0809   -2.5197   -7.6277 H         1 UNK         0.0739 
     89 H89        25.2786   -1.8550   -5.4954 H         1 UNK         0.3093 
     90 H90        22.7375   -0.4243   -7.5514 H         1 UNK         0.0818 
     91 H91        21.4110   -2.2459   -6.5097 H         1 UNK         0.0819 
     92 H92        22.4428   -2.8971   -7.7713 H         1 UNK         0.0819 
     93 H93        22.8845   -3.1179   -6.0843 H         1 UNK         0.0819 
     94 H94        22.8631   -0.9992   -4.7525 H         1 UNK         0.3041 
     95 H95        24.4029    2.0480   -3.7295 H         1 UNK         0.0784 
     96 H96        21.9988    2.6331   -4.0956 H         1 UNK         0.0793 
     97 H97        21.5078    1.0744   -3.4473 H         1 UNK         0.0793 
     98 H98        22.3174    2.2519   -2.4126 H         1 UNK         0.0793 
     99 H99        23.3595   -0.0522   -2.1703 H         1 UNK         0.3024 
    100 H100       24.9644   -1.1879   -0.8849 H         1 UNK         0.1171 
    101 H101       23.7013   -2.7292   -2.4315 H         1 UNK         0.0786 
    102 H102       24.8959   -3.6282   -1.5153 H         1 UNK         0.0786 
    103 H103       25.2078   -3.2150   -3.1977 H         1 UNK         0.0786 
    104 H104       27.4308   -1.3434   -2.3531 H         1 UNK         0.2977 
    105 H105       26.8278    0.2588   -5.3626 H         1 UNK         0.3127 
    106 H106       28.9916    1.7662   -6.3662 H         1 UNK         0.0770 
    107 H107       26.4292    2.7182   -4.9803 H         1 UNK         0.0814 
    108 H108       27.9170    3.6431   -5.1297 H         1 UNK         0.0814 
    109 H109       27.8956    2.1729   -4.1669 H         1 UNK         0.0814 
    110 H110       25.6246    1.5843   -7.5172 H         1 UNK         0.2983 
    111 H111       25.8684    3.7152   -9.4544 H         1 UNK         0.0947 
    112 H112       23.7335    2.7655  -10.3342 H         1 UNK         0.0806 
    113 H113       23.6639    2.9693   -8.5905 H         1 UNK         0.0806 
    114 H114       23.9037    1.3664   -9.2819 H         1 UNK         0.0806 
    115 H115       26.4845    0.2032   -9.5177 H         1 UNK         0.3000 
    116 H116       26.7960    0.0199  -12.3720 H         1 UNK         0.0850 
    117 H117       27.5795   -2.2859  -11.8680 H         1 UNK         0.0810 
    118 H118       26.0958   -1.9213  -11.0006 H         1 UNK         0.0810 
    119 H119       27.6395   -1.9145  -10.1515 H         1 UNK         0.0810 
    120 H120       29.1591    0.3513   -9.6464 H         1 UNK         0.3040 
    121 H121       31.2081    1.3166  -11.4962 H         1 UNK         0.0766 
    122 H122       32.8630   -0.4529  -10.7180 H         1 UNK         0.0812 
    123 H123       31.5630   -1.1449  -11.6718 H         1 UNK         0.0812 
    124 H124       31.5482   -1.3037   -9.9182 H         1 UNK         0.0812 
    125 H125       33.1276    2.0563  -10.3020 H         1 UNK         0.3205 
    126 H126       32.3907    3.5428   -7.9323 H         1 UNK         0.0754 
    127 H127       34.6384    4.5565   -8.2304 H         1 UNK         0.0769 
    128 H128       33.7586    4.5392   -9.7476 H         1 UNK         0.0769 
    129 H129       35.0413    3.3631   -9.4578 H         1 UNK         0.0769 
    130 H130       32.0058    1.1245   -7.0452 H         1 UNK         0.2981 
    131 H131       34.3024   -0.0807   -5.7438 H         1 UNK         0.0541 
    132 H132       32.4682    2.6937   -4.7846 H         1 UNK         0.3459 
    133 H133       32.9026    2.6197   -3.0949 H         1 UNK         0.3459 
    134 H134       31.3163   -0.6565   -5.4212 H         1 UNK         0.0612 
    135 H135       32.5958   -1.6111   -4.7169 H         1 UNK         0.0612 
    136 H136       33.9581   -3.4271   -5.9572 H         1 UNK         0.0624 
    137 H137       33.2550   -4.1785   -7.3708 H         1 UNK         0.0624 
@<TRIPOS>BOND
     1    1    2 1    
     2    1   72 1    
     3    1   73 1    
     4    1   74 1    
     5    2    3 2    
     6    2    4 am   BACKBONE|DICT|INTERRES
     7    4    5 1    
     8    4   75 1    
     9    5    6 1    
    10    5   35 1    
    11    5   76 1    
    12    6    7 1    
    13    6   77 1    
    14    6   78 1    
    15    7    8 1    
    16    8    9 1    
    17    8   79 1    
    18    8   80 1    
    19    9   10 ar   
    20    9   14 ar   
    21   10   11 ar   
    22   10   81 1    
    23   11   12 ar   
    24   11   71 1    
    25   12   13 ar   
    26   12   82 1    
    27   13   14 ar   
    28   13   15 1    
    29   14   83 1    
    30   15   16 1    
    31   15   84 1    
    32   15   85 1    
    33   16   17 1    
    34   17   18 1    
    35   17   86 1    
    36   17   87 1    
    37   18   19 1    
    38   18   37 1    
    39   18   88 1    
    40   19   20 am   BACKBONE|DICT|INTERRES
    41   19   89 1    
    42   20   21 2    
    43   20   22 1    
    44   22   23 1    
    45   22   24 1    
    46   22   90 1    
    47   23   91 1    
    48   23   92 1    
    49   23   93 1    
    50   24   25 am   BACKBONE|DICT|INTERRES
    51   24   94 1    
    52   25   26 2    
    53   25   27 1    
    54   27   28 1    
    55   27   29 1    
    56   27   95 1    
    57   28   96 1    
    58   28   97 1    
    59   28   98 1    
    60   29   30 am   BACKBONE|DICT|INTERRES
    61   29   99 1    
    62   30   31 2    
    63   30   32 1    
    64   32   33 1    
    65   32   34 1    
    66   32  100 1    
    67   33  101 1    
    68   33  102 1    
    69   33  103 1    
    70   34   35 am   BACKBONE|DICT|INTERRES
    71   34  104 1    
    72   35   36 2    
    73   37   38 2    
    74   37   39 am   BACKBONE|DICT|INTERRES
    75   39   40 1    
    76   39  105 1    
    77   40   41 1    
    78   40   42 1    
    79   40  106 1    
    80   41  107 1    
    81   41  108 1    
    82   41  109 1    
    83   42   43 2    
    84   42   44 am   BACKBONE|DICT|INTERRES
    85   44   45 1    
    86   44  110 1    
    87   45   46 1    
    88   45   47 1    
    89   45  111 1    
    90   46  112 1    
    91   46  113 1    
    92   46  114 1    
    93   47   48 2    
    94   47   49 am   BACKBONE|DICT|INTERRES
    95   49   50 1    
    96   49  115 1    
    97   50   51 1    
    98   50   52 1    
    99   50  116 1    
   100   51  117 1    
   101   51  118 1    
   102   51  119 1    
   103   52   53 2    
   104   52   54 am   BACKBONE|DICT|INTERRES
   105   54   55 1    
   106   54  120 1    
   107   55   56 1    
   108   55   57 1    
   109   55  121 1    
   110   56  122 1    
   111   56  123 1    
   112   56  124 1    
   113   57   58 2    
   114   57   59 am   BACKBONE|DICT|INTERRES
   115   59   60 1    
   116   59  125 1    
   117   60   61 1    
   118   60   62 1    
   119   60  126 1    
   120   61  127 1    
   121   61  128 1    
   122   61  129 1    
   123   62   63 2    
   124   62   64 am   BACKBONE|DICT|INTERRES
   125   64   65 1    
   126   64  130 1    
   127   65   66 1    
   128   65   69 1    
   129   65  131 1    
   130   66   67 am   BACKBONE|DICT|INTERRES
   131   66   68 2    
   132   67  132 1    
   133   67  133 1    
   134   69   70 1    
   135   69  134 1    
   136   69  135 1    
   137   70   71 1    
   138   71  136 1    
   139   71  137 1    
@<TRIPOS>SUBSTRUCTURE
     1 UNK         1 GROUP             0       ****    0 ROOT    
