@<TRIPOS>MOLECULE
3R137
137   139    1
SMALL
USER_CHARGES


@<TRIPOS>ATOM
      1 CA         23.3327   -4.3454   -1.2619 C.3       0 UNK        -0.2020 
      2 C          24.5882   -3.5225   -1.0182 C.2       0 UNK         0.4855 
      3 O          24.5236   -2.2926   -0.9726 O.2       0 UNK        -0.5197 
      4 N          25.7316   -4.1990   -0.8530 N.am      1 UNK        -0.4892 
      5 CA         27.0472   -3.5902   -0.6318 C.3       1 UNK         0.0835 
      6 C6         28.1009   -4.6230   -0.1508 C.3       12 UNK        -0.0855 
      7 S7         28.2396   -6.1211   -1.1878 S.3       12 UNK        -0.2931 
      8 C8         30.0137   -6.1353   -1.6108 C.3       12 UNK         0.0378 
      9 C9         30.3502   -5.1853   -2.7526 C.ar      12 UNK        -0.0802 
     10 C10        31.2409   -4.1226   -2.5636 C.ar      12 UNK        -0.0944 
     11 C11        31.5758   -3.2812   -3.6309 C.ar      12 UNK        -0.0787 
     12 C12        31.0051   -3.5008   -4.8881 C.ar      12 UNK        -0.0862 
     13 C13        30.1185   -4.5611   -5.0876 C.ar      12 UNK        -0.0733 
     14 C14        29.7975   -5.4004   -4.0184 C.ar      12 UNK        -0.0832 
     15 C15        29.5128   -4.8130   -6.4579 C.3       12 UNK         0.0240 
     16 S16        27.8572   -4.0784   -6.5892 S.3       12 UNK        -0.2522 
     17 C17        28.2712   -2.3216   -6.8439 C.3       12 UNK        -0.0967 
     18 CA         27.0043   -1.5112   -7.1915 C.3       5 UNK         0.0660 
     19 N          26.0707   -1.4366   -6.0640 N.am      5 UNK        -0.4015 
     20 C          24.7823   -1.0845   -6.1681 C.2       4 UNK         0.4946 
     21 O          24.2421   -0.7555   -7.2251 O.2       4 UNK        -0.5353 
     22 CA         23.9628   -1.0885   -4.8684 C.3       4 UNK         0.0277 
     23 CB         23.5633   -2.5195   -4.4784 C.3       4 UNK        -0.1981 
     24 N          24.6849   -0.4549   -3.7638 N.am      4 UNK        -0.4209 
     25 C          24.9012    0.8657   -3.6791 C.2       3 UNK         0.4942 
     26 O          24.4374    1.6882   -4.4691 O.2       3 UNK        -0.5208 
     27 CA         25.8043    1.3576   -2.5359 C.3       3 UNK         0.0250 
     28 CB         24.9763    1.6111   -1.2661 C.3       3 UNK        -0.1990 
     29 N          26.9119    0.4511   -2.2214 N.am      3 UNK        -0.4232 
     30 C          27.8874    0.0936   -3.0703 C.2       2 UNK         0.4993 
     31 O          27.9494    0.4607   -4.2406 O.2       2 UNK        -0.5286 
     32 CA         28.9662   -0.8576   -2.5321 C.3       2 UNK         0.0209 
     33 CB         30.1082   -0.0513   -1.8928 C.3       2 UNK        -0.1931 
     34 N          28.4453   -1.8188   -1.5588 N.am      2 UNK        -0.4546 
     35 C          27.5324   -2.7595   -1.8395 C.2       1 UNK         0.5154 
     36 O          27.0646   -2.9433   -2.9679 O.2       1 UNK        -0.5181 
     37 C          27.3617   -0.1288   -7.7678 C.2       5 UNK         0.5014 
     38 O          27.5845   -0.0374   -8.9750 O.2       5 UNK        -0.5248 
     39 N          27.3651    0.9219   -6.9323 N.am      6 UNK        -0.4434 
     40 CA         27.6473    2.3213   -7.2816 C.3       6 UNK         0.0363 
     41 CB         27.5144    3.1961   -6.0244 C.3       6 UNK        -0.1936 
     42 C          26.7993    2.9089   -8.4253 C.2       6 UNK         0.5081 
     43 O          27.2311    3.8792   -9.0478 O.2       6 UNK        -0.5248 
     44 N          25.6351    2.3072   -8.7087 N.am      7 UNK        -0.4718 
     45 CA         24.8093    2.5997   -9.8835 C.3       7 UNK         0.0273 
     46 CB         23.4671    1.8638   -9.7468 C.3       7 UNK        -0.1935 
     47 C          25.4916    2.2353  -11.2187 C.2       7 UNK         0.5018 
     48 O          25.1678    2.8455  -12.2386 O.2       7 UNK        -0.5186 
     49 N          26.4165    1.2658  -11.1892 N.am      8 UNK        -0.4240 
     50 CA         27.2632    0.8672  -12.3108 C.3       8 UNK         0.0235 
     51 CB         27.2472   -0.6653  -12.4532 C.3       8 UNK        -0.2000 
     52 C          28.6893    1.3944  -12.0983 C.2       8 UNK         0.4941 
     53 O          29.1776    2.1542  -12.9357 O.2       8 UNK        -0.5273 
     54 N          29.3220    1.0035  -10.9835 N.am      9 UNK        -0.4262 
     55 CA         30.6683    1.4039  -10.5774 C.3       9 UNK         0.0264 
     56 CB         31.7378    0.7992  -11.5101 C.3       9 UNK        -0.1955 
     57 C          30.9052    0.9467   -9.1337 C.2       9 UNK         0.5031 
     58 O          30.6923   -0.2285   -8.8276 O.2       9 UNK        -0.5390 
     59 N          31.3567    1.8717   -8.2800 N.am      10 UNK        -0.4204 
     60 CA         31.7384    1.5992   -6.8928 C.3       10 UNK         0.0237 
     61 CB         31.5543    2.8846   -6.0671 C.3       10 UNK        -0.1985 
     62 C          33.1954    1.1116   -6.8094 C.2       10 UNK         0.4970 
     63 O          33.9711    1.3186   -7.7467 O.2       10 UNK        -0.4914 
     64 N          33.5460    0.5049   -5.6698 N.am      11 UNK        -0.4285 
     65 CA         34.9174    0.0972   -5.3260 C.3       11 UNK         0.1007 
     66 C          35.8636    1.3153   -5.1354 C.2       11 UNK         0.5703 
     67 N          37.1298    1.1823   -5.5063 N.am      11 UNK        -0.7361 
     68 O          35.4705    2.3596   -4.6177 O.2       11 UNK        -0.4986 
     69 C69        34.9447   -0.8106   -4.0683 C.3       12 UNK        -0.0947 
     70 S70        34.1001   -2.4032   -4.3365 S.3       12 UNK        -0.2240 
     71 C71        32.5455   -2.1268   -3.4361 C.3       12 UNK         0.0194 
     72 H72        23.3273   -5.2443   -0.6456 H         1 UNK         0.0906 
     73 H73        22.4416   -3.7665   -1.0192 H         1 UNK         0.0906 
     74 H74        23.2719   -4.6448   -2.3076 H         1 UNK         0.0906 
     75 H75        25.7399   -5.2048   -0.9512 H         1 UNK         0.3140 
     76 H76        26.9103   -2.8764    0.1842 H         1 UNK         0.1085 
     77 H77        29.0806   -4.1542   -0.0407 H         1 UNK         0.0836 
     78 H78        27.8337   -4.9564    0.8532 H         1 UNK         0.0836 
     79 H79        30.6061   -5.9132   -0.7218 H         1 UNK         0.0731 
     80 H80        30.2893   -7.1473   -1.9107 H         1 UNK         0.0731 
     81 H81        31.6809   -3.9562   -1.5899 H         1 UNK         0.1312 
     82 H82        31.2613   -2.8505   -5.7137 H         1 UNK         0.1406 
     83 H83        29.1099   -6.2217   -4.1693 H         1 UNK         0.1631 
     84 H84        29.4349   -5.8873   -6.6315 H         1 UNK         0.0717 
     85 H85        30.1579   -4.4240   -7.2473 H         1 UNK         0.0717 
     86 H86        28.7544   -1.9237   -5.9496 H         1 UNK         0.0934 
     87 H87        29.0053   -2.2584   -7.6507 H         1 UNK         0.0934 
     88 H88        26.4885   -2.0386   -7.9976 H         1 UNK         0.0739 
     89 H89        26.4344   -1.7060   -5.1596 H         1 UNK         0.3093 
     90 H90        23.0474   -0.5213   -5.0514 H         1 UNK         0.0818 
     91 H91        22.8936   -2.5164   -3.6186 H         1 UNK         0.0819 
     92 H92        23.0376   -3.0155   -5.2955 H         1 UNK         0.0819 
     93 H93        24.4321   -3.1305   -4.2290 H         1 UNK         0.0819 
     94 H94        25.0774   -1.0620   -3.0549 H         1 UNK         0.3041 
     95 H95        26.2420    2.3062   -2.8544 H         1 UNK         0.0784 
     96 H96        24.1535    2.2988   -1.4675 H         1 UNK         0.0793 
     97 H97        24.5425    0.6888   -0.8766 H         1 UNK         0.0793 
     98 H98        25.5830    2.0572   -0.4778 H         1 UNK         0.0793 
     99 H99        26.9386    0.0793   -1.2834 H         1 UNK         0.3024 
    100 H100       29.3602   -1.4211   -3.3805 H         1 UNK         0.1171 
    101 H101       30.5721    0.6127   -2.6236 H         1 UNK         0.0786 
    102 H102       30.8883   -0.7031   -1.5014 H         1 UNK         0.0786 
    103 H103       29.7534    0.5701   -1.0694 H         1 UNK         0.0786 
    104 H104       28.7872   -1.7318   -0.6125 H         1 UNK         0.2977 
    105 H105       27.2768    0.7303   -5.9357 H         1 UNK         0.3127 
    106 H106       28.6848    2.3603   -7.6128 H         1 UNK         0.0770 
    107 H107       26.5081    3.1476   -5.6074 H         1 UNK         0.0814 
    108 H108       27.7253    4.2425   -6.2490 H         1 UNK         0.0814 
    109 H109       28.2146    2.8895   -5.2479 H         1 UNK         0.0814 
    110 H110       25.3544    1.5199   -8.1390 H         1 UNK         0.2983 
    111 H111       24.6148    3.6743   -9.8991 H         1 UNK         0.0947 
    112 H112       22.8159    2.0767  -10.5958 H         1 UNK         0.0806 
    113 H113       22.9354    2.1713   -8.8461 H         1 UNK         0.0806 
    114 H114       23.6034    0.7822   -9.7019 H         1 UNK         0.0806 
    115 H115       26.6495    0.8454  -10.2919 H         1 UNK         0.3000 
    116 H116       26.8852    1.2935  -13.2426 H         1 UNK         0.0850 
    117 H117       27.8997   -0.9880  -13.2656 H         1 UNK         0.0810 
    118 H118       26.2444   -1.0273  -12.6800 H         1 UNK         0.0810 
    119 H119       27.5827   -1.1671  -11.5447 H         1 UNK         0.0810 
    120 H120       28.8299    0.4168  -10.3098 H         1 UNK         0.3040 
    121 H121       30.7284    2.4933  -10.6236 H         1 UNK         0.0766 
    122 H122       32.7421    1.0428  -11.1606 H         1 UNK         0.0812 
    123 H123       31.6521    1.1809  -12.5272 H         1 UNK         0.0812 
    124 H124       31.6622   -0.2880  -11.5527 H         1 UNK         0.0812 
    125 H125       31.5707    2.7950   -8.6289 H         1 UNK         0.3205 
    126 H126       31.0841    0.8251   -6.4841 H         1 UNK         0.0754 
    127 H127       31.7632    2.7086   -5.0111 H         1 UNK         0.0769 
    128 H128       30.5331    3.2585   -6.1330 H         1 UNK         0.0769 
    129 H129       32.2226    3.6792   -6.4020 H         1 UNK         0.0769 
    130 H130       32.8634    0.4138   -4.9348 H         1 UNK         0.2981 
    131 H131       35.2985   -0.4839   -6.1685 H         1 UNK         0.0541 
    132 H132       37.7620    1.9566   -5.3760 H         1 UNK         0.3459 
    133 H133       37.4656    0.3261   -5.9196 H         1 UNK         0.3459 
    134 H134       34.5118   -0.2974   -3.2075 H         1 UNK         0.0612 
    135 H135       35.9745   -1.0447   -3.7918 H         1 UNK         0.0612 
    136 H136       32.7702   -1.9820   -2.3784 H         1 UNK         0.0624 
    137 H137       32.0790   -1.2075   -3.7901 H         1 UNK         0.0624 
@<TRIPOS>BOND
     1    1    2 1    
     2    1   72 1    
     3    1   73 1    
     4    1   74 1    
     5    2    3 2    
     6    2    4 am   BACKBONE|DICT|INTERRES
     7    4    5 1    
     8    4   75 1    
     9    5    6 1    
    10    5   35 1    
    11    5   76 1    
    12    6    7 1    
    13    6   77 1    
    14    6   78 1    
    15    7    8 1    
    16    8    9 1    
    17    8   79 1    
    18    8   80 1    
    19    9   10 ar   
    20    9   14 ar   
    21   10   11 ar   
    22   10   81 1    
    23   11   12 ar   
    24   11   71 1    
    25   12   13 ar   
    26   12   82 1    
    27   13   14 ar   
    28   13   15 1    
    29   14   83 1    
    30   15   16 1    
    31   15   84 1    
    32   15   85 1    
    33   16   17 1    
    34   17   18 1    
    35   17   86 1    
    36   17   87 1    
    37   18   19 1    
    38   18   37 1    
    39   18   88 1    
    40   19   20 am   BACKBONE|DICT|INTERRES
    41   19   89 1    
    42   20   21 2    
    43   20   22 1    
    44   22   23 1    
    45   22   24 1    
    46   22   90 1    
    47   23   91 1    
    48   23   92 1    
    49   23   93 1    
    50   24   25 am   BACKBONE|DICT|INTERRES
    51   24   94 1    
    52   25   26 2    
    53   25   27 1    
    54   27   28 1    
    55   27   29 1    
    56   27   95 1    
    57   28   96 1    
    58   28   97 1    
    59   28   98 1    
    60   29   30 am   BACKBONE|DICT|INTERRES
    61   29   99 1    
    62   30   31 2    
    63   30   32 1    
    64   32   33 1    
    65   32   34 1    
    66   32  100 1    
    67   33  101 1    
    68   33  102 1    
    69   33  103 1    
    70   34   35 am   BACKBONE|DICT|INTERRES
    71   34  104 1    
    72   35   36 2    
    73   37   38 2    
    74   37   39 am   BACKBONE|DICT|INTERRES
    75   39   40 1    
    76   39  105 1    
    77   40   41 1    
    78   40   42 1    
    79   40  106 1    
    80   41  107 1    
    81   41  108 1    
    82   41  109 1    
    83   42   43 2    
    84   42   44 am   BACKBONE|DICT|INTERRES
    85   44   45 1    
    86   44  110 1    
    87   45   46 1    
    88   45   47 1    
    89   45  111 1    
    90   46  112 1    
    91   46  113 1    
    92   46  114 1    
    93   47   48 2    
    94   47   49 am   BACKBONE|DICT|INTERRES
    95   49   50 1    
    96   49  115 1    
    97   50   51 1    
    98   50   52 1    
    99   50  116 1    
   100   51  117 1    
   101   51  118 1    
   102   51  119 1    
   103   52   53 2    
   104   52   54 am   BACKBONE|DICT|INTERRES
   105   54   55 1    
   106   54  120 1    
   107   55   56 1    
   108   55   57 1    
   109   55  121 1    
   110   56  122 1    
   111   56  123 1    
   112   56  124 1    
   113   57   58 2    
   114   57   59 am   BACKBONE|DICT|INTERRES
   115   59   60 1    
   116   59  125 1    
   117   60   61 1    
   118   60   62 1    
   119   60  126 1    
   120   61  127 1    
   121   61  128 1    
   122   61  129 1    
   123   62   63 2    
   124   62   64 am   BACKBONE|DICT|INTERRES
   125   64   65 1    
   126   64  130 1    
   127   65   66 1    
   128   65   69 1    
   129   65  131 1    
   130   66   67 am   BACKBONE|DICT|INTERRES
   131   66   68 2    
   132   67  132 1    
   133   67  133 1    
   134   69   70 1    
   135   69  134 1    
   136   69  135 1    
   137   70   71 1    
   138   71  136 1    
   139   71  137 1    
@<TRIPOS>SUBSTRUCTURE
     1 UNK         1 GROUP             0       ****    0 ROOT    
