@<TRIPOS>MOLECULE
3R137
137   139    1
SMALL
USER_CHARGES


@<TRIPOS>ATOM
      1 CA         30.3288    0.8443   -1.3542 C.3       0 UNK        -0.2020 
      2 C          29.7975   -0.4756   -0.8187 C.2       0 UNK         0.4855 
      3 O          29.4753   -0.5667    0.3657 O.2       0 UNK        -0.5197 
      4 N          29.6931   -1.4894   -1.6907 N.am      1 UNK        -0.4892 
      5 CA         29.1169   -2.8139   -1.4149 C.3       1 UNK         0.0835 
      6 C6         29.9674   -3.6472   -0.4160 C.3       12 UNK        -0.0855 
      7 S7         29.7231   -5.4469   -0.6146 S.3       12 UNK        -0.2931 
      8 C8         31.1200   -5.9131   -1.6919 C.3       12 UNK         0.0378 
      9 C9         31.0339   -5.2726   -3.0721 C.ar      12 UNK        -0.0802 
     10 C10        32.0710   -4.4581   -3.5373 C.ar      12 UNK        -0.0944 
     11 C11        31.9986   -3.8606   -4.8007 C.ar      12 UNK        -0.0787 
     12 C12        30.8717   -4.0834   -5.5984 C.ar      12 UNK        -0.0862 
     13 C13        29.8267   -4.8961   -5.1456 C.ar      12 UNK        -0.0733 
     14 C14        29.9220   -5.5007   -3.8894 C.ar      12 UNK        -0.0832 
     15 C15        28.5955   -5.1314   -6.0116 C.3       12 UNK         0.0240 
     16 S16        27.1478   -4.2089   -5.3984 S.3       12 UNK        -0.2522 
     17 C17        27.6479   -2.4889   -5.7274 C.3       12 UNK        -0.0967 
     18 CA         26.7467   -1.7858   -6.7712 C.3       5 UNK         0.0660 
     19 N          25.3518   -1.6621   -6.3482 N.am      5 UNK        -0.4015 
     20 C          24.3255   -1.4379   -7.1819 C.2       4 UNK         0.4946 
     21 O          24.4280   -1.4210   -8.4088 O.2       4 UNK        -0.5353 
     22 CA         22.9498   -1.1691   -6.5454 C.3       4 UNK         0.0277 
     23 CB         22.1670   -2.4823   -6.3843 C.3       4 UNK        -0.1981 
     24 N          23.0333   -0.4913   -5.2491 N.am      4 UNK        -0.4209 
     25 C          23.4839    0.7589   -5.0643 C.2       3 UNK         0.4942 
     26 O          23.8304    1.5074   -5.9778 O.2       3 UNK        -0.5208 
     27 CA         23.6238    1.2279   -3.6038 C.3       3 UNK         0.0250 
     28 CB         22.3043    1.8350   -3.1015 C.3       3 UNK        -0.1990 
     29 N          24.0589    0.1624   -2.6896 N.am      3 UNK        -0.4232 
     30 C          25.2171   -0.5003   -2.8073 C.2       2 UNK         0.4993 
     31 O          26.0463   -0.2712   -3.6946 O.2       2 UNK        -0.5286 
     32 CA         25.4715   -1.6484   -1.8253 C.3       2 UNK         0.0209 
     33 CB         24.6287   -2.8828   -2.2034 C.3       2 UNK        -0.1931 
     34 N          26.8917   -1.9648   -1.9057 N.am      2 UNK        -0.4546 
     35 C          27.6134   -2.7100   -1.0636 C.2       1 UNK         0.5154 
     36 O          27.1463   -3.2557   -0.0617 O.2       1 UNK        -0.5181 
     37 C          27.3097   -0.3956   -7.0972 C.2       5 UNK         0.5014 
     38 O          27.7972   -0.1857   -8.2068 O.2       5 UNK        -0.5248 
     39 N          27.2216    0.5297   -6.1299 N.am      6 UNK        -0.4434 
     40 CA         27.8115    1.8723   -6.1737 C.3       6 UNK         0.0363 
     41 CB         27.5577    2.5757   -4.8315 C.3       6 UNK        -0.1936 
     42 C          27.3487    2.7541   -7.3479 C.2       6 UNK         0.5081 
     43 O          28.0624    3.6847   -7.7215 O.2       6 UNK        -0.5248 
     44 N          26.1832    2.4359   -7.9232 N.am      7 UNK        -0.4718 
     45 CA         25.6461    3.0457   -9.1376 C.3       7 UNK         0.0273 
     46 CB         24.1827    2.6020   -9.3006 C.3       7 UNK        -0.1935 
     47 C          26.4436    2.7331  -10.4214 C.2       7 UNK         0.5018 
     48 O          26.2701    3.4634  -11.3989 O.2       7 UNK        -0.5186 
     49 N          27.2660    1.6707  -10.4306 N.am      8 UNK        -0.4240 
     50 CA         27.9822    1.2116  -11.6280 C.3       8 UNK         0.0235 
     51 CB         27.1409    0.1417  -12.3469 C.3       8 UNK        -0.2000 
     52 C          29.4028    0.6879  -11.3612 C.2       8 UNK         0.4941 
     53 O          30.2647    0.8576  -12.2257 O.2       8 UNK        -0.5273 
     54 N          29.6328    0.0363  -10.2148 N.am      9 UNK        -0.4262 
     55 CA         30.9155   -0.5639   -9.8430 C.3       9 UNK         0.0264 
     56 CB         30.6710   -1.6218   -8.7510 C.3       9 UNK        -0.1955 
     57 C          31.9215    0.4844   -9.3442 C.2       9 UNK         0.5031 
     58 O          31.5299    1.5781   -8.9290 O.2       9 UNK        -0.5390 
     59 N          33.2035    0.0918   -9.3134 N.am      10 UNK        -0.4204 
     60 CA         34.3265    0.8833   -8.7896 C.3       10 UNK         0.0237 
     61 CB         35.6384    0.1192   -9.0329 C.3       10 UNK        -0.1985 
     62 C          34.1978    1.2675   -7.3014 C.2       10 UNK         0.4970 
     63 O          34.8107    2.2489   -6.8797 O.2       10 UNK        -0.4914 
     64 N          33.3917    0.5084   -6.5478 N.am      11 UNK        -0.4285 
     65 CA         32.9639    0.8273   -5.1787 C.3       11 UNK         0.1007 
     66 C          31.9845    2.0359   -5.0763 C.2       11 UNK         0.5703 
     67 N          31.4316    2.5563   -6.1663 N.am      11 UNK        -0.7361 
     68 O          31.7339    2.5236   -3.9778 O.2       11 UNK        -0.4986 
     69 C69        32.3957   -0.4253   -4.4584 C.3       12 UNK        -0.0947 
     70 S70        33.6734   -1.6977   -4.1924 S.3       12 UNK        -0.2240 
     71 C71        33.1598   -3.0248   -5.3308 C.3       12 UNK         0.0194 
     72 H72        31.4093    0.9005   -1.2254 H         1 UNK         0.0906 
     73 H73        30.0966    0.9676   -2.4117 H         1 UNK         0.0906 
     74 H74        29.8790    1.6805   -0.8193 H         1 UNK         0.0906 
     75 H75        30.0020   -1.3483   -2.6419 H         1 UNK         0.3140 
     76 H76        29.1427   -3.3274   -2.3759 H         1 UNK         0.1085 
     77 H77        29.7480   -3.3659    0.6155 H         1 UNK         0.0836 
     78 H78        31.0275   -3.4313   -0.5586 H         1 UNK         0.0836 
     79 H79        32.0557   -5.6518   -1.1950 H         1 UNK         0.0731 
     80 H80        31.1277   -6.9977   -1.8079 H         1 UNK         0.0731 
     81 H81        32.9427   -4.2918   -2.9191 H         1 UNK         0.1312 
     82 H82        30.8118   -3.6343   -6.5795 H         1 UNK         0.1406 
     83 H83        29.1170   -6.1315   -3.5361 H         1 UNK         0.1631 
     84 H84        28.3574   -6.1960   -6.0185 H         1 UNK         0.0717 
     85 H85        28.7883   -4.8556   -7.0497 H         1 UNK         0.0717 
     86 H86        27.6503   -1.9562   -4.7776 H         1 UNK         0.0934 
     87 H87        28.6828   -2.4748   -6.0698 H         1 UNK         0.0934 
     88 H88        26.7773   -2.3758   -7.6902 H         1 UNK         0.0739 
     89 H89        25.1904   -1.6216   -5.3527 H         1 UNK         0.3093 
     90 H90        22.3954   -0.5194   -7.2263 H         1 UNK         0.0818 
     91 H91        21.1587   -2.3010   -6.0115 H         1 UNK         0.0819 
     92 H92        22.0681   -2.9963   -7.3416 H         1 UNK         0.0819 
     93 H93        22.6627   -3.1686   -5.6964 H         1 UNK         0.0819 
     94 H94        22.7564   -1.0231   -4.4372 H         1 UNK         0.3041 
     95 H95        24.3861    2.0094   -3.5847 H         1 UNK         0.0784 
     96 H96        21.9727    2.6419   -3.7567 H         1 UNK         0.0793 
     97 H97        21.5040    1.0948   -3.0655 H         1 UNK         0.0793 
     98 H98        22.4167    2.2579   -2.1029 H         1 UNK         0.0793 
     99 H99        23.4261   -0.0809   -1.9404 H         1 UNK         0.3024 
    100 H100       25.2326   -1.3159   -0.8127 H         1 UNK         0.1171 
    101 H101       23.5616   -2.6604   -2.1717 H         1 UNK         0.0786 
    102 H102       24.8008   -3.7093   -1.5138 H         1 UNK         0.0786 
    103 H103       24.8616   -3.2374   -3.2085 H         1 UNK         0.0786 
    104 H104       27.3558   -1.4847   -2.6666 H         1 UNK         0.2977 
    105 H105       26.7709    0.2715   -5.2524 H         1 UNK         0.3127 
    106 H106       28.8863    1.7336   -6.2907 H         1 UNK         0.0770 
    107 H107       26.4917    2.7160   -4.6505 H         1 UNK         0.0814 
    108 H108       28.0268    3.5602   -4.8103 H         1 UNK         0.0814 
    109 H109       27.9680    2.0042   -3.9987 H         1 UNK         0.0814 
    110 H110       25.6332    1.6973   -7.5029 H         1 UNK         0.2983 
    111 H111       25.6641    4.1294   -9.0038 H         1 UNK         0.0947 
    112 H112       23.7310    3.0520  -10.1858 H         1 UNK         0.0806 
    113 H113       23.5796    2.9016   -8.4431 H         1 UNK         0.0806 
    114 H114       24.1004    1.5190   -9.4051 H         1 UNK         0.0806 
    115 H115       27.3721    1.1218   -9.5821 H         1 UNK         0.3000 
    116 H116       28.1095    2.0522  -12.3139 H         1 UNK         0.0850 
    117 H117       27.6520   -0.2284  -13.2368 H         1 UNK         0.0810 
    118 H118       26.1806    0.5439  -12.6701 H         1 UNK         0.0810 
    119 H119       26.9450   -0.7148  -11.7004 H         1 UNK         0.0810 
    120 H120       28.8931   -0.0415   -9.5177 H         1 UNK         0.3040 
    121 H121       31.3335   -1.0588  -10.7224 H         1 UNK         0.0766 
    122 H122       31.5789   -2.1875   -8.5400 H         1 UNK         0.0812 
    123 H123       29.9101   -2.3404   -9.0570 H         1 UNK         0.0812 
    124 H124       30.3428   -1.1671   -7.8153 H         1 UNK         0.0812 
    125 H125       33.4340   -0.8243   -9.6719 H         1 UNK         0.3205 
    126 H126       34.3610    1.8151   -9.3580 H         1 UNK         0.0754 
    127 H127       36.4967    0.6950   -8.6832 H         1 UNK         0.0769 
    128 H128       35.7947   -0.0760  -10.0941 H         1 UNK         0.0769 
    129 H129       35.6526   -0.8370   -8.5079 H         1 UNK         0.0769 
    130 H130       32.9381   -0.2789   -6.9810 H         1 UNK         0.2981 
    131 H131       33.8556    1.1402   -4.6318 H         1 UNK         0.0541 
    132 H132       31.6058    2.1729   -7.0906 H         1 UNK         0.3459 
    133 H133       30.8211    3.3509   -6.0692 H         1 UNK         0.3459 
    134 H134       31.5507   -0.8441   -5.0080 H         1 UNK         0.0612 
    135 H135       32.0182   -0.1612   -3.4708 H         1 UNK         0.0612 
    136 H136       32.9239   -2.5906   -6.3031 H         1 UNK         0.0624 
    137 H137       34.0115   -3.6869   -5.4912 H         1 UNK         0.0624 
@<TRIPOS>BOND
     1    1    2 1    
     2    1   72 1    
     3    1   73 1    
     4    1   74 1    
     5    2    3 2    
     6    2    4 am   BACKBONE|DICT|INTERRES
     7    4    5 1    
     8    4   75 1    
     9    5    6 1    
    10    5   35 1    
    11    5   76 1    
    12    6    7 1    
    13    6   77 1    
    14    6   78 1    
    15    7    8 1    
    16    8    9 1    
    17    8   79 1    
    18    8   80 1    
    19    9   10 ar   
    20    9   14 ar   
    21   10   11 ar   
    22   10   81 1    
    23   11   12 ar   
    24   11   71 1    
    25   12   13 ar   
    26   12   82 1    
    27   13   14 ar   
    28   13   15 1    
    29   14   83 1    
    30   15   16 1    
    31   15   84 1    
    32   15   85 1    
    33   16   17 1    
    34   17   18 1    
    35   17   86 1    
    36   17   87 1    
    37   18   19 1    
    38   18   37 1    
    39   18   88 1    
    40   19   20 am   BACKBONE|DICT|INTERRES
    41   19   89 1    
    42   20   21 2    
    43   20   22 1    
    44   22   23 1    
    45   22   24 1    
    46   22   90 1    
    47   23   91 1    
    48   23   92 1    
    49   23   93 1    
    50   24   25 am   BACKBONE|DICT|INTERRES
    51   24   94 1    
    52   25   26 2    
    53   25   27 1    
    54   27   28 1    
    55   27   29 1    
    56   27   95 1    
    57   28   96 1    
    58   28   97 1    
    59   28   98 1    
    60   29   30 am   BACKBONE|DICT|INTERRES
    61   29   99 1    
    62   30   31 2    
    63   30   32 1    
    64   32   33 1    
    65   32   34 1    
    66   32  100 1    
    67   33  101 1    
    68   33  102 1    
    69   33  103 1    
    70   34   35 am   BACKBONE|DICT|INTERRES
    71   34  104 1    
    72   35   36 2    
    73   37   38 2    
    74   37   39 am   BACKBONE|DICT|INTERRES
    75   39   40 1    
    76   39  105 1    
    77   40   41 1    
    78   40   42 1    
    79   40  106 1    
    80   41  107 1    
    81   41  108 1    
    82   41  109 1    
    83   42   43 2    
    84   42   44 am   BACKBONE|DICT|INTERRES
    85   44   45 1    
    86   44  110 1    
    87   45   46 1    
    88   45   47 1    
    89   45  111 1    
    90   46  112 1    
    91   46  113 1    
    92   46  114 1    
    93   47   48 2    
    94   47   49 am   BACKBONE|DICT|INTERRES
    95   49   50 1    
    96   49  115 1    
    97   50   51 1    
    98   50   52 1    
    99   50  116 1    
   100   51  117 1    
   101   51  118 1    
   102   51  119 1    
   103   52   53 2    
   104   52   54 am   BACKBONE|DICT|INTERRES
   105   54   55 1    
   106   54  120 1    
   107   55   56 1    
   108   55   57 1    
   109   55  121 1    
   110   56  122 1    
   111   56  123 1    
   112   56  124 1    
   113   57   58 2    
   114   57   59 am   BACKBONE|DICT|INTERRES
   115   59   60 1    
   116   59  125 1    
   117   60   61 1    
   118   60   62 1    
   119   60  126 1    
   120   61  127 1    
   121   61  128 1    
   122   61  129 1    
   123   62   63 2    
   124   62   64 am   BACKBONE|DICT|INTERRES
   125   64   65 1    
   126   64  130 1    
   127   65   66 1    
   128   65   69 1    
   129   65  131 1    
   130   66   67 am   BACKBONE|DICT|INTERRES
   131   66   68 2    
   132   67  132 1    
   133   67  133 1    
   134   69   70 1    
   135   69  134 1    
   136   69  135 1    
   137   70   71 1    
   138   71  136 1    
   139   71  137 1    
@<TRIPOS>SUBSTRUCTURE
     1 UNK         1 GROUP             0       ****    0 ROOT    
