@<TRIPOS>MOLECULE
3R137
137   139    1
SMALL
USER_CHARGES


@<TRIPOS>ATOM
      1 CA         26.9299   -5.6343   -8.4533 C.3       0 UNK        -0.2020 
      2 C          26.6110   -5.0116   -7.1034 C.2       0 UNK         0.4855 
      3 O          25.9950   -3.9480   -7.0547 O.2       0 UNK        -0.5197 
      4 N          26.9985   -5.6807   -6.0070 N.am      1 UNK        -0.4892 
      5 CA         26.9230   -5.2220   -4.6037 C.3       1 UNK         0.0835 
      6 C6         27.8118   -3.9745   -4.3288 C.3       12 UNK        -0.0855 
      7 S7         29.5566   -4.2696   -4.7811 S.3       12 UNK        -0.2931 
      8 C8         30.3810   -4.2745   -3.1566 C.3       12 UNK         0.0378 
      9 C9         30.8236   -2.8774   -2.7450 C.ar      12 UNK        -0.0802 
     10 C10        31.8405   -2.2410   -3.4618 C.ar      12 UNK        -0.0944 
     11 C11        32.2829   -0.9676   -3.0983 C.ar      12 UNK        -0.0787 
     12 C12        31.7161   -0.3385   -1.9869 C.ar      12 UNK        -0.0862 
     13 C13        30.6925   -0.9591   -1.2624 C.ar      12 UNK        -0.0733 
     14 C14        30.2483   -2.2300   -1.6461 C.ar      12 UNK        -0.0832 
     15 C15        30.0701   -0.2513   -0.0655 C.3       12 UNK         0.0240 
     16 S16        28.4345    0.4569   -0.4493 S.3       12 UNK        -0.2522 
     17 C17        28.8192    1.5816   -1.8348 C.3       12 UNK        -0.0967 
     18 CA         28.3926    0.9524   -3.1894 C.3       5 UNK         0.0660 
     19 N          26.9354    0.8146   -3.3129 N.am      5 UNK        -0.4015 
     20 C          26.0285    1.7867   -3.4736 C.2       4 UNK         0.4946 
     21 O          26.3138    2.9619   -3.7126 O.2       4 UNK        -0.5353 
     22 CA         24.5492    1.3770   -3.3239 C.3       4 UNK         0.0277 
     23 CB         23.6254    2.5971   -3.1448 C.3       4 UNK        -0.1981 
     24 N          24.0428    0.5699   -4.4360 N.am      4 UNK        -0.4209 
     25 C          24.3882   -0.6937   -4.7083 C.2       3 UNK         0.4942 
     26 O          25.2586   -1.3149   -4.0927 O.2       3 UNK        -0.5208 
     27 CA         23.6243   -1.3643   -5.8620 C.3       3 UNK         0.0250 
     28 CB         24.2419   -1.0026   -7.2222 C.3       3 UNK        -0.1990 
     29 N          23.6243   -2.8178   -5.6986 N.am      3 UNK        -0.4232 
     30 C          22.8043   -3.4823   -4.8688 C.2       2 UNK         0.4993 
     31 O          21.8658   -2.9543   -4.2699 O.2       2 UNK        -0.5286 
     32 CA         23.0678   -4.9859   -4.6585 C.3       2 UNK         0.0209 
     33 CB         22.1755   -5.8266   -5.5863 C.3       2 UNK        -0.1931 
     34 N          24.4684   -5.3434   -4.8844 N.am      2 UNK        -0.4546 
     35 C          25.4831   -5.0174   -4.0713 C.2       1 UNK         0.5154 
     36 O          25.3133   -4.5799   -2.9321 O.2       1 UNK        -0.5181 
     37 C          29.0056    1.6546   -4.4148 C.2       5 UNK         0.5014 
     38 O          29.2452    0.9903   -5.4195 O.2       5 UNK        -0.5248 
     39 N          29.2002    2.9801   -4.3470 N.am      6 UNK        -0.4434 
     40 CA         29.6814    3.8170   -5.4529 C.3       6 UNK         0.0363 
     41 CB         29.9273    5.2426   -4.9345 C.3       6 UNK        -0.1936 
     42 C          28.7517    3.8381   -6.6852 C.2       6 UNK         0.5081 
     43 O          29.1934    4.2325   -7.7646 O.2       6 UNK        -0.5248 
     44 N          27.4919    3.4121   -6.5172 N.am      7 UNK        -0.4718 
     45 CA         26.5517    3.1626   -7.6104 C.3       7 UNK         0.0273 
     46 CB         25.1208    3.1789   -7.0501 C.3       7 UNK        -0.1935 
     47 C          26.8206    1.8425   -8.3637 C.2       7 UNK         0.5018 
     48 O          26.3073    1.6864   -9.4727 O.2       7 UNK        -0.5186 
     49 N          27.5833    0.9122   -7.7692 N.am      8 UNK        -0.4240 
     50 CA         27.9586   -0.3629   -8.3821 C.3       8 UNK         0.0235 
     51 CB         28.2192   -1.4034   -7.2782 C.3       8 UNK        -0.2000 
     52 C          29.2221   -0.1921   -9.2335 C.2       8 UNK         0.4941 
     53 O          30.0732    0.6411   -8.9162 O.2       8 UNK        -0.5273 
     54 N          29.3742   -1.0478  -10.2529 N.am      9 UNK        -0.4262 
     55 CA         30.5262   -1.0789  -11.1670 C.3       9 UNK         0.0264 
     56 CB         30.2524   -2.1061  -12.2784 C.3       9 UNK        -0.1955 
     57 C          31.8869   -1.3629  -10.4947 C.2       9 UNK         0.5031 
     58 O          32.9245   -1.1212  -11.1129 O.2       9 UNK        -0.5390 
     59 N          31.8614   -1.8637   -9.2524 N.am      10 UNK        -0.4204 
     60 CA         33.0259   -2.1218   -8.4081 C.3       10 UNK         0.0237 
     61 CB         32.5692   -2.8934   -7.1599 C.3       10 UNK        -0.1985 
     62 C          33.8019   -0.8557   -7.9977 C.2       10 UNK         0.4970 
     63 O          35.0172   -0.9485   -7.8186 O.2       10 UNK        -0.4914 
     64 N          33.1137    0.2847   -7.8465 N.am      11 UNK        -0.4285 
     65 CA         33.7188    1.5558   -7.4092 C.3       11 UNK         0.1007 
     66 C          32.9383    2.8380   -7.8149 C.2       11 UNK         0.5703 
     67 N          31.7749    2.7620   -8.4450 N.am      11 UNK        -0.7361 
     68 O          33.4159    3.9440   -7.5719 O.2       11 UNK        -0.4986 
     69 C69        34.1236    1.5559   -5.9045 C.3       12 UNK        -0.0947 
     70 S70        32.7375    1.1834   -4.7766 S.3       12 UNK        -0.2240 
     71 C71        33.3753   -0.2795   -3.9034 C.3       12 UNK         0.0194 
     72 H72        26.0110   -5.8097   -9.0121 H         1 UNK         0.0906 
     73 H73        27.5585   -4.9602   -9.0344 H         1 UNK         0.0906 
     74 H74        27.4540   -6.5844   -8.3522 H         1 UNK         0.0906 
     75 H75        27.4744   -6.5645   -6.1283 H         1 UNK         0.3140 
     76 H76        27.3240   -6.0416   -4.0050 H         1 UNK         0.1085 
     77 H77        27.7607   -3.6789   -3.2793 H         1 UNK         0.0836 
     78 H78        27.4477   -3.1144   -4.8917 H         1 UNK         0.0836 
     79 H79        29.7309   -4.7253   -2.4052 H         1 UNK         0.0731 
     80 H80        31.2614   -4.9159   -3.2175 H         1 UNK         0.0731 
     81 H81        32.2850   -2.7451   -4.3074 H         1 UNK         0.1312 
     82 H82        32.0647    0.6440   -1.6992 H         1 UNK         0.1406 
     83 H83        29.4579   -2.7119   -1.0865 H         1 UNK         0.1631 
     84 H84        30.7261    0.5414    0.2979 H         1 UNK         0.0717 
     85 H85        29.9636   -0.9578    0.7589 H         1 UNK         0.0717 
     86 H86        28.3026    2.5268   -1.6602 H         1 UNK         0.0934 
     87 H87        29.8850    1.8147   -1.8216 H         1 UNK         0.0934 
     88 H88        28.7871   -0.0647   -3.2222 H         1 UNK         0.0739 
     89 H89        26.5764   -0.1351   -3.2636 H         1 UNK         0.3093 
     90 H90        24.4769    0.7771   -2.4138 H         1 UNK         0.0818 
     91 H91        22.5998    2.2933   -2.9347 H         1 UNK         0.0819 
     92 H92        23.9543    3.2159   -2.3087 H         1 UNK         0.0819 
     93 H93        23.6141    3.2309   -4.0326 H         1 UNK         0.0819 
     94 H94        23.3316    1.0038   -5.0066 H         1 UNK         0.3041 
     95 H95        22.5918   -1.0080   -5.8491 H         1 UNK         0.0784 
     96 H96        23.6734   -1.4410   -8.0423 H         1 UNK         0.0793 
     97 H97        24.2562    0.0764   -7.3792 H         1 UNK         0.0793 
     98 H98        25.2672   -1.3580   -7.3062 H         1 UNK         0.0793 
     99 H99        24.4108   -3.3100   -6.1151 H         1 UNK         0.3024 
    100 H100       22.8123   -5.2222   -3.6229 H         1 UNK         0.1171 
    101 H101       22.3918   -5.6349   -6.6381 H         1 UNK         0.0786 
    102 H102       21.1210   -5.5989   -5.4235 H         1 UNK         0.0786 
    103 H103       22.3071   -6.8934   -5.4042 H         1 UNK         0.0786 
    104 H104       24.7087   -5.6971   -5.7994 H         1 UNK         0.2977 
    105 H105       28.8952    3.4656   -3.5159 H         1 UNK         0.3127 
    106 H106       30.6363    3.4029   -5.7824 H         1 UNK         0.0770 
    107 H107       29.0078    5.7035   -4.5715 H         1 UNK         0.0814 
    108 H108       30.3225    5.8813   -5.7258 H         1 UNK         0.0814 
    109 H109       30.6544    5.2504   -4.1225 H         1 UNK         0.0814 
    110 H110       27.1876    3.1655   -5.5804 H         1 UNK         0.2983 
    111 H111       26.6408    3.9735   -8.3368 H         1 UNK         0.0947 
    112 H112       24.3866    3.0485   -7.8463 H         1 UNK         0.0806 
    113 H113       24.8980    4.1239   -6.5542 H         1 UNK         0.0806 
    114 H114       24.9664    2.3778   -6.3293 H         1 UNK         0.0806 
    115 H115       28.0643    1.1352   -6.9010 H         1 UNK         0.3000 
    116 H116       27.1378   -0.7156   -9.0104 H         1 UNK         0.0850 
    117 H117       29.1532   -1.2157   -6.7471 H         1 UNK         0.0810 
    118 H118       27.4213   -1.4130   -6.5368 H         1 UNK         0.0810 
    119 H119       28.2860   -2.4083   -7.6953 H         1 UNK         0.0810 
    120 H120       28.6414   -1.7192  -10.4347 H         1 UNK         0.3040 
    121 H121       30.6028   -0.0910  -11.6260 H         1 UNK         0.0766 
    122 H122       29.3468   -1.8608  -12.8335 H         1 UNK         0.0812 
    123 H123       30.1405   -3.1143  -11.8776 H         1 UNK         0.0812 
    124 H124       31.0718   -2.1317  -12.9984 H         1 UNK         0.0812 
    125 H125       30.9571   -2.0278   -8.8367 H         1 UNK         0.3205 
    126 H126       33.7113   -2.7569   -8.9733 H         1 UNK         0.0754 
    127 H127       33.4132   -3.1113   -6.5040 H         1 UNK         0.0769 
    128 H128       32.1120   -3.8472   -7.4243 H         1 UNK         0.0769 
    129 H129       31.8410   -2.3223   -6.5818 H         1 UNK         0.0769 
    130 H130       32.1162    0.2977   -8.0155 H         1 UNK         0.2981 
    131 H131       34.6463    1.6530   -7.9767 H         1 UNK         0.0541 
    132 H132       31.2850    3.6198   -8.6484 H         1 UNK         0.3459 
    133 H133       31.2920    1.8859   -8.6295 H         1 UNK         0.3459 
    134 H134       34.5511    2.5171   -5.6146 H         1 UNK         0.0612 
    135 H135       34.9238    0.8331   -5.7427 H         1 UNK         0.0612 
    136 H136       33.8032   -0.9711   -4.6311 H         1 UNK         0.0624 
    137 H137       34.1875    0.0208   -3.2400 H         1 UNK         0.0624 
@<TRIPOS>BOND
     1    1    2 1    
     2    1   72 1    
     3    1   73 1    
     4    1   74 1    
     5    2    3 2    
     6    2    4 am   BACKBONE|DICT|INTERRES
     7    4    5 1    
     8    4   75 1    
     9    5    6 1    
    10    5   35 1    
    11    5   76 1    
    12    6    7 1    
    13    6   77 1    
    14    6   78 1    
    15    7    8 1    
    16    8    9 1    
    17    8   79 1    
    18    8   80 1    
    19    9   10 ar   
    20    9   14 ar   
    21   10   11 ar   
    22   10   81 1    
    23   11   12 ar   
    24   11   71 1    
    25   12   13 ar   
    26   12   82 1    
    27   13   14 ar   
    28   13   15 1    
    29   14   83 1    
    30   15   16 1    
    31   15   84 1    
    32   15   85 1    
    33   16   17 1    
    34   17   18 1    
    35   17   86 1    
    36   17   87 1    
    37   18   19 1    
    38   18   37 1    
    39   18   88 1    
    40   19   20 am   BACKBONE|DICT|INTERRES
    41   19   89 1    
    42   20   21 2    
    43   20   22 1    
    44   22   23 1    
    45   22   24 1    
    46   22   90 1    
    47   23   91 1    
    48   23   92 1    
    49   23   93 1    
    50   24   25 am   BACKBONE|DICT|INTERRES
    51   24   94 1    
    52   25   26 2    
    53   25   27 1    
    54   27   28 1    
    55   27   29 1    
    56   27   95 1    
    57   28   96 1    
    58   28   97 1    
    59   28   98 1    
    60   29   30 am   BACKBONE|DICT|INTERRES
    61   29   99 1    
    62   30   31 2    
    63   30   32 1    
    64   32   33 1    
    65   32   34 1    
    66   32  100 1    
    67   33  101 1    
    68   33  102 1    
    69   33  103 1    
    70   34   35 am   BACKBONE|DICT|INTERRES
    71   34  104 1    
    72   35   36 2    
    73   37   38 2    
    74   37   39 am   BACKBONE|DICT|INTERRES
    75   39   40 1    
    76   39  105 1    
    77   40   41 1    
    78   40   42 1    
    79   40  106 1    
    80   41  107 1    
    81   41  108 1    
    82   41  109 1    
    83   42   43 2    
    84   42   44 am   BACKBONE|DICT|INTERRES
    85   44   45 1    
    86   44  110 1    
    87   45   46 1    
    88   45   47 1    
    89   45  111 1    
    90   46  112 1    
    91   46  113 1    
    92   46  114 1    
    93   47   48 2    
    94   47   49 am   BACKBONE|DICT|INTERRES
    95   49   50 1    
    96   49  115 1    
    97   50   51 1    
    98   50   52 1    
    99   50  116 1    
   100   51  117 1    
   101   51  118 1    
   102   51  119 1    
   103   52   53 2    
   104   52   54 am   BACKBONE|DICT|INTERRES
   105   54   55 1    
   106   54  120 1    
   107   55   56 1    
   108   55   57 1    
   109   55  121 1    
   110   56  122 1    
   111   56  123 1    
   112   56  124 1    
   113   57   58 2    
   114   57   59 am   BACKBONE|DICT|INTERRES
   115   59   60 1    
   116   59  125 1    
   117   60   61 1    
   118   60   62 1    
   119   60  126 1    
   120   61  127 1    
   121   61  128 1    
   122   61  129 1    
   123   62   63 2    
   124   62   64 am   BACKBONE|DICT|INTERRES
   125   64   65 1    
   126   64  130 1    
   127   65   66 1    
   128   65   69 1    
   129   65  131 1    
   130   66   67 am   BACKBONE|DICT|INTERRES
   131   66   68 2    
   132   67  132 1    
   133   67  133 1    
   134   69   70 1    
   135   69  134 1    
   136   69  135 1    
   137   70   71 1    
   138   71  136 1    
   139   71  137 1    
@<TRIPOS>SUBSTRUCTURE
     1 UNK         1 GROUP             0       ****    0 ROOT    
