@<TRIPOS>MOLECULE
3R137
137   139    1
SMALL
USER_CHARGES


@<TRIPOS>ATOM
      1 CA         30.1272    1.3016   -0.9611 C.3       0 UNK        -0.2020 
      2 C          29.4750    0.0654   -1.5605 C.2       0 UNK         0.4855 
      3 O          28.9498    0.1300   -2.6709 O.2       0 UNK        -0.5197 
      4 N          29.5161   -1.0653   -0.8473 N.am      1 UNK        -0.4892 
      5 CA         28.8831   -2.3241   -1.2556 C.3       1 UNK         0.0835 
      6 C6         29.4065   -3.5314   -0.4373 C.3       12 UNK        -0.0855 
      7 S7         31.2318   -3.6575   -0.4284 S.3       12 UNK        -0.2931 
      8 C8         31.5508   -5.1107   -1.4767 C.3       12 UNK         0.0378 
      9 C9         31.4908   -4.7788   -2.9613 C.ar      12 UNK        -0.0802 
     10 C10        32.6243   -4.2885   -3.6209 C.ar      12 UNK        -0.0944 
     11 C11        32.5966   -4.0452   -4.9984 C.ar      12 UNK        -0.0787 
     12 C12        31.4148   -4.2747   -5.7095 C.ar      12 UNK        -0.0862 
     13 C13        30.2714   -4.7475   -5.0598 C.ar      12 UNK        -0.0733 
     14 C14        30.3187   -5.0085   -3.6869 C.ar      12 UNK        -0.0832 
     15 C15        28.9914   -4.9863   -5.8498 C.3       12 UNK         0.0240 
     16 S16        27.5899   -4.0167   -5.2099 S.3       12 UNK        -0.2522 
     17 C17        28.1978   -2.3069   -5.3886 C.3       12 UNK        -0.0967 
     18 CA         27.5291   -1.5317   -6.5479 C.3       5 UNK         0.0660 
     19 N          26.0649   -1.5720   -6.5196 N.am      5 UNK        -0.4015 
     20 C          25.2701   -1.1662   -7.5203 C.2       4 UNK         0.4946 
     21 O          25.6892   -0.7431   -8.5971 O.2       4 UNK        -0.5353 
     22 CA         23.7523   -1.2062   -7.2738 C.3       4 UNK         0.0277 
     23 CB         23.1891   -2.5938   -7.6186 C.3       4 UNK        -0.1981 
     24 N          23.3891   -0.8557   -5.8992 N.am      4 UNK        -0.4209 
     25 C          23.5609    0.3581   -5.3548 C.2       3 UNK         0.4942 
     26 O          23.9714    1.3369   -5.9784 O.2       3 UNK        -0.5208 
     27 CA         23.2862    0.4805   -3.8431 C.3       3 UNK         0.0250 
     28 CB         21.8018    0.7840   -3.5855 C.3       3 UNK        -0.1990 
     29 N          23.6916   -0.7044   -3.0710 N.am      3 UNK        -0.4232 
     30 C          24.9387   -1.1958   -3.0478 C.2       2 UNK         0.4993 
     31 O          25.8681   -0.6942   -3.6834 O.2       2 UNK        -0.5286 
     32 CA         25.1676   -2.4938   -2.2529 C.3       2 UNK         0.0209 
     33 CB         24.5283   -3.6915   -2.9774 C.3       2 UNK        -0.1931 
     34 N          26.6039   -2.7455   -2.0955 N.am      2 UNK        -0.4546 
     35 C          27.3487   -2.1928   -1.1304 C.2       1 UNK         0.5154 
     36 O          26.8679   -1.6012   -0.1585 O.2       1 UNK        -0.5181 
     37 C          28.0250   -0.0792   -6.5476 C.2       5 UNK         0.5014 
     38 O          28.8748    0.2683   -7.3657 O.2       5 UNK        -0.5248 
     39 N          27.4703    0.7470   -5.6506 N.am      6 UNK        -0.4434 
     40 CA         27.7632    2.1781   -5.5512 C.3       6 UNK         0.0363 
     41 CB         27.0043    2.7712   -4.3541 C.3       6 UNK        -0.1936 
     42 C          27.4361    2.9482   -6.8435 C.2       6 UNK         0.5081 
     43 O          28.1756    3.8634   -7.2049 O.2       6 UNK        -0.5248 
     44 N          26.3518    2.5496   -7.5221 N.am      7 UNK        -0.4718 
     45 CA         25.9362    3.0902   -8.8129 C.3       7 UNK         0.0273 
     46 CB         24.4542    2.7565   -9.0565 C.3       7 UNK        -0.1935 
     47 C          26.8143    2.6008   -9.9778 C.2       7 UNK         0.5018 
     48 O          27.3900    3.4307  -10.6828 O.2       7 UNK        -0.5186 
     49 N          26.8602    1.2786  -10.1977 N.am      8 UNK        -0.4240 
     50 CA         27.4156    0.6820  -11.4159 C.3       8 UNK         0.0235 
     51 CB         26.6273   -0.5909  -11.7678 C.3       8 UNK        -0.2000 
     52 C          28.9145    0.3673  -11.3251 C.2       8 UNK         0.4941 
     53 O          29.6365    0.6227  -12.2900 O.2       8 UNK        -0.5273 
     54 N          29.3551   -0.2114  -10.2006 N.am      9 UNK        -0.4262 
     55 CA         30.7342   -0.6745  -10.0063 C.3       9 UNK         0.0264 
     56 CB         30.7313   -1.9234   -9.1064 C.3       9 UNK        -0.1955 
     57 C          31.6512    0.4123   -9.4216 C.2       9 UNK         0.5031 
     58 O          32.8708    0.2833   -9.5256 O.2       9 UNK        -0.5390 
     59 N          31.0597    1.4332   -8.7852 N.am      10 UNK        -0.4204 
     60 CA         31.6642    2.5700   -8.0756 C.3       10 UNK         0.0237 
     61 CB         32.6370    3.3656   -8.9681 C.3       10 UNK        -0.1985 
     62 C          32.3059    2.1979   -6.7267 C.2       10 UNK         0.4970 
     63 O          32.2650    3.0153   -5.8069 O.2       10 UNK        -0.4914 
     64 N          32.8488    0.9801   -6.6085 N.am      11 UNK        -0.4285 
     65 CA         33.3150    0.3759   -5.3503 C.3       11 UNK         0.1007 
     66 C          32.1893    0.0100   -4.3405 C.2       11 UNK         0.5703 
     67 N          30.9187    0.0470   -4.7228 N.am      11 UNK        -0.7361 
     68 O          32.4800   -0.2674   -3.1801 O.2       11 UNK        -0.4986 
     69 C69        34.2944   -0.8015   -5.5962 C.3       12 UNK        -0.0947 
     70 S70        33.6438   -2.0929   -6.7112 S.3       12 UNK        -0.2240 
     71 C71        33.8601   -3.6187   -5.7370 C.3       12 UNK         0.0194 
     72 H72        30.9207    1.6580   -1.6176 H         1 UNK         0.0906 
     73 H73        29.3910    2.0973   -0.8520 H         1 UNK         0.0906 
     74 H74        30.5611    1.1001    0.0180 H         1 UNK         0.0906 
     75 H75        29.9646   -1.0767    0.0570 H         1 UNK         0.3140 
     76 H76        29.1343   -2.4937   -2.3053 H         1 UNK         0.1085 
     77 H77        29.0806   -3.4545    0.6021 H         1 UNK         0.0836 
     78 H78        28.9771   -4.4607   -0.8156 H         1 UNK         0.0836 
     79 H79        32.5418   -5.4982   -1.2354 H         1 UNK         0.0731 
     80 H80        30.8516   -5.9107   -1.2286 H         1 UNK         0.0731 
     81 H81        33.5366   -4.1250   -3.0636 H         1 UNK         0.1312 
     82 H82        31.3927   -4.0931   -6.7754 H         1 UNK         0.1406 
     83 H83        29.4407   -5.3940   -3.1870 H         1 UNK         0.1631 
     84 H84        28.7381   -6.0463   -5.8057 H         1 UNK         0.0717 
     85 H85        29.1305   -4.7451   -6.9049 H         1 UNK         0.0717 
     86 H86        28.0377   -1.7995   -4.4373 H         1 UNK         0.0934 
     87 H87        29.2800   -2.3102   -5.5274 H         1 UNK         0.0934 
     88 H88        27.8492   -1.9910   -7.4856 H         1 UNK         0.0739 
     89 H89        25.6512   -1.8337   -5.6370 H         1 UNK         0.3093 
     90 H90        23.2908   -0.4742   -7.9403 H         1 UNK         0.0818 
     91 H91        22.1030   -2.6157   -7.5267 H         1 UNK         0.0819 
     92 H92        23.4304   -2.8662   -8.6472 H         1 UNK         0.0819 
     93 H93        23.5980   -3.3711   -6.9717 H         1 UNK         0.0819 
     94 H94        23.0318   -1.5968   -5.3145 H         1 UNK         0.3041 
     95 H95        23.8750    1.3240   -3.4764 H         1 UNK         0.0784 
     96 H96        21.4847    1.6714   -4.1356 H         1 UNK         0.0793 
     97 H97        21.1588   -0.0399   -3.8976 H         1 UNK         0.0793 
     98 H98        21.6133    0.9768   -2.5291 H         1 UNK         0.0793 
     99 H99        22.9704   -1.1660   -2.5348 H         1 UNK         0.3024 
    100 H100       24.7025   -2.3858   -1.2701 H         1 UNK         0.1171 
    101 H101       23.4433   -3.5914   -3.0239 H         1 UNK         0.0786 
    102 H102       24.7399   -4.6264   -2.4582 H         1 UNK         0.0786 
    103 H103       24.8883   -3.7906   -4.0015 H         1 UNK         0.0786 
    104 H104       27.0623   -3.1875   -2.8805 H         1 UNK         0.2977 
    105 H105       26.8260    0.3564   -4.9652 H         1 UNK         0.3127 
    106 H106       28.8342    2.2813   -5.3642 H         1 UNK         0.0770 
    107 H107       25.9245    2.6836   -4.4785 H         1 UNK         0.0814 
    108 H108       27.2364    3.8296   -4.2307 H         1 UNK         0.0814 
    109 H109       27.2760    2.2673   -3.4260 H         1 UNK         0.0814 
    110 H110       25.7677    1.8272   -7.1165 H         1 UNK         0.2983 
    111 H111       26.0266    4.1780   -8.7696 H         1 UNK         0.0947 
    112 H112       24.1171    3.1496  -10.0166 H         1 UNK         0.0806 
    113 H113       23.8201    3.1952   -8.2858 H         1 UNK         0.0806 
    114 H114       24.2725    1.6814   -9.0606 H         1 UNK         0.0806 
    115 H115       26.3828    0.6448   -9.5573 H         1 UNK         0.3000 
    116 H116       27.2801    1.3824  -12.2436 H         1 UNK         0.0850 
    117 H117       26.9799   -1.0210  -12.7063 H         1 UNK         0.0810 
    118 H118       25.5647   -0.3790  -11.8873 H         1 UNK         0.0810 
    119 H119       26.7301   -1.3586  -10.9999 H         1 UNK         0.0810 
    120 H120       28.7232   -0.3190   -9.4161 H         1 UNK         0.3040 
    121 H121       31.1522   -0.9673  -10.9719 H         1 UNK         0.0766 
    122 H122       31.7248   -2.3715   -9.0707 H         1 UNK         0.0812 
    123 H123       30.0489   -2.6858   -9.4820 H         1 UNK         0.0812 
    124 H124       30.4475   -1.6924   -8.0797 H         1 UNK         0.0812 
    125 H125       30.0596    1.3338   -8.6414 H         1 UNK         0.3205 
    126 H126       30.8283    3.2310   -7.8408 H         1 UNK         0.0754 
    127 H127       32.9586    4.2803   -8.4686 H         1 UNK         0.0769 
    128 H128       32.1653    3.6569   -9.9066 H         1 UNK         0.0769 
    129 H129       33.5361    2.7964   -9.2052 H         1 UNK         0.0769 
    130 H130       32.8854    0.3878   -7.4296 H         1 UNK         0.2981 
    131 H131       33.8955    1.1481   -4.8420 H         1 UNK         0.0541 
    132 H132       30.6724    0.2862   -5.6694 H         1 UNK         0.3459 
    133 H133       30.1936   -0.0930   -4.0247 H         1 UNK         0.3459 
    134 H134       34.6079   -1.2430   -4.6488 H         1 UNK         0.0612 
    135 H135       35.2077   -0.4164   -6.0517 H         1 UNK         0.0612 
    136 H136       34.1352   -4.4200   -6.4239 H         1 UNK         0.0624 
    137 H137       34.7027   -3.5107   -5.0529 H         1 UNK         0.0624 
@<TRIPOS>BOND
     1    1    2 1    
     2    1   72 1    
     3    1   73 1    
     4    1   74 1    
     5    2    3 2    
     6    2    4 am   BACKBONE|DICT|INTERRES
     7    4    5 1    
     8    4   75 1    
     9    5    6 1    
    10    5   35 1    
    11    5   76 1    
    12    6    7 1    
    13    6   77 1    
    14    6   78 1    
    15    7    8 1    
    16    8    9 1    
    17    8   79 1    
    18    8   80 1    
    19    9   10 ar   
    20    9   14 ar   
    21   10   11 ar   
    22   10   81 1    
    23   11   12 ar   
    24   11   71 1    
    25   12   13 ar   
    26   12   82 1    
    27   13   14 ar   
    28   13   15 1    
    29   14   83 1    
    30   15   16 1    
    31   15   84 1    
    32   15   85 1    
    33   16   17 1    
    34   17   18 1    
    35   17   86 1    
    36   17   87 1    
    37   18   19 1    
    38   18   37 1    
    39   18   88 1    
    40   19   20 am   BACKBONE|DICT|INTERRES
    41   19   89 1    
    42   20   21 2    
    43   20   22 1    
    44   22   23 1    
    45   22   24 1    
    46   22   90 1    
    47   23   91 1    
    48   23   92 1    
    49   23   93 1    
    50   24   25 am   BACKBONE|DICT|INTERRES
    51   24   94 1    
    52   25   26 2    
    53   25   27 1    
    54   27   28 1    
    55   27   29 1    
    56   27   95 1    
    57   28   96 1    
    58   28   97 1    
    59   28   98 1    
    60   29   30 am   BACKBONE|DICT|INTERRES
    61   29   99 1    
    62   30   31 2    
    63   30   32 1    
    64   32   33 1    
    65   32   34 1    
    66   32  100 1    
    67   33  101 1    
    68   33  102 1    
    69   33  103 1    
    70   34   35 am   BACKBONE|DICT|INTERRES
    71   34  104 1    
    72   35   36 2    
    73   37   38 2    
    74   37   39 am   BACKBONE|DICT|INTERRES
    75   39   40 1    
    76   39  105 1    
    77   40   41 1    
    78   40   42 1    
    79   40  106 1    
    80   41  107 1    
    81   41  108 1    
    82   41  109 1    
    83   42   43 2    
    84   42   44 am   BACKBONE|DICT|INTERRES
    85   44   45 1    
    86   44  110 1    
    87   45   46 1    
    88   45   47 1    
    89   45  111 1    
    90   46  112 1    
    91   46  113 1    
    92   46  114 1    
    93   47   48 2    
    94   47   49 am   BACKBONE|DICT|INTERRES
    95   49   50 1    
    96   49  115 1    
    97   50   51 1    
    98   50   52 1    
    99   50  116 1    
   100   51  117 1    
   101   51  118 1    
   102   51  119 1    
   103   52   53 2    
   104   52   54 am   BACKBONE|DICT|INTERRES
   105   54   55 1    
   106   54  120 1    
   107   55   56 1    
   108   55   57 1    
   109   55  121 1    
   110   56  122 1    
   111   56  123 1    
   112   56  124 1    
   113   57   58 2    
   114   57   59 am   BACKBONE|DICT|INTERRES
   115   59   60 1    
   116   59  125 1    
   117   60   61 1    
   118   60   62 1    
   119   60  126 1    
   120   61  127 1    
   121   61  128 1    
   122   61  129 1    
   123   62   63 2    
   124   62   64 am   BACKBONE|DICT|INTERRES
   125   64   65 1    
   126   64  130 1    
   127   65   66 1    
   128   65   69 1    
   129   65  131 1    
   130   66   67 am   BACKBONE|DICT|INTERRES
   131   66   68 2    
   132   67  132 1    
   133   67  133 1    
   134   69   70 1    
   135   69  134 1    
   136   69  135 1    
   137   70   71 1    
   138   71  136 1    
   139   71  137 1    
@<TRIPOS>SUBSTRUCTURE
     1 UNK         1 GROUP             0       ****    0 ROOT    
