@<TRIPOS>MOLECULE
3R137
137   139    1
SMALL
USER_CHARGES


@<TRIPOS>ATOM
      1 CA         26.5624   -8.1614   -4.8827 C.3       0 UNK        -0.2020 
      2 C          26.5442   -6.8724   -4.0756 C.2       0 UNK         0.4855 
      3 O          26.0592   -6.8634   -2.9428 O.2       0 UNK        -0.5197 
      4 N          27.0629   -5.7788   -4.6473 N.am      1 UNK        -0.4892 
      5 CA         27.1362   -4.4491   -4.0293 C.3       1 UNK         0.0835 
      6 C6         28.3049   -3.6089   -4.6073 C.3       12 UNK        -0.0855 
      7 S7         29.9264   -4.4240   -4.4036 S.3       12 UNK        -0.2931 
      8 C8         30.4728   -3.8090   -2.7768 C.3       12 UNK         0.0378 
      9 C9         30.8464   -2.3314   -2.7935 C.ar      12 UNK        -0.0802 
     10 C10        32.0383   -1.9127   -3.3903 C.ar      12 UNK        -0.0944 
     11 C11        32.4083   -0.5641   -3.3777 C.ar      12 UNK        -0.0787 
     12 C12        31.5728    0.3675   -2.7517 C.ar      12 UNK        -0.0862 
     13 C13        30.3741   -0.0312   -2.1496 C.ar      12 UNK        -0.0733 
     14 C14        30.0241   -1.3887   -2.1708 C.ar      12 UNK        -0.0832 
     15 C15        29.5220    1.0207   -1.4354 C.3       12 UNK         0.0240 
     16 S16        27.7608    0.5810   -1.2261 S.3       12 UNK        -0.2522 
     17 C17        26.9830    1.2212   -2.7443 C.3       12 UNK        -0.0967 
     18 CA         27.0475    0.2253   -3.9460 C.3       5 UNK         0.0660 
     19 N          25.7725    0.1425   -4.6563 N.am      5 UNK        -0.4015 
     20 C          25.2022    1.1202   -5.3750 C.2       4 UNK         0.4946 
     21 O          25.7323    2.2105   -5.5963 O.2       4 UNK        -0.5353 
     22 CA         23.7885    0.8463   -5.9141 C.3       4 UNK         0.0277 
     23 CB         23.8479    0.0454   -7.2228 C.3       4 UNK        -0.1981 
     24 N          22.9480    0.1275   -4.9543 N.am      4 UNK        -0.4209 
     25 C          22.5372    0.6032   -3.7687 C.2       3 UNK         0.4942 
     26 O          22.7515    1.7506   -3.3766 O.2       3 UNK        -0.5208 
     27 CA         21.7554   -0.3673   -2.8629 C.3       3 UNK         0.0250 
     28 CB         20.2424   -0.1290   -2.9975 C.3       3 UNK        -0.1990 
     29 N          22.0500   -1.7772   -3.1431 N.am      3 UNK        -0.4232 
     30 C          23.2114   -2.3822   -2.8557 C.2       2 UNK         0.4993 
     31 O          24.1212   -1.8347   -2.2284 O.2       2 UNK        -0.5286 
     32 CA         23.3732   -3.8375   -3.3460 C.3       2 UNK         0.0209 
     33 CB         22.6765   -4.1016   -4.7015 C.3       2 UNK        -0.1931 
     34 N          24.7743   -4.2738   -3.4149 N.am      2 UNK        -0.4546 
     35 C          25.7693   -3.7354   -4.1358 C.2       1 UNK         0.5154 
     36 O          25.6286   -2.7595   -4.8768 O.2       1 UNK        -0.5181 
     37 C          28.1911    0.4562   -4.9597 C.2       5 UNK         0.5014 
     38 O          28.4055   -0.3902   -5.8329 O.2       5 UNK        -0.5248 
     39 N          28.8595    1.6149   -4.8840 N.am      6 UNK        -0.4434 
     40 CA         29.9196    2.0360   -5.7973 C.3       6 UNK         0.0363 
     41 CB         30.5196    3.3647   -5.3139 C.3       6 UNK        -0.1936 
     42 C          29.4762    2.1440   -7.2652 C.2       6 UNK         0.5081 
     43 O          30.3015    1.9227   -8.1493 O.2       6 UNK        -0.5248 
     44 N          28.1893    2.4338   -7.5120 N.am      7 UNK        -0.4718 
     45 CA         27.6155    2.4900   -8.8599 C.3       7 UNK         0.0273 
     46 CB         26.2530    3.1997   -8.8171 C.3       7 UNK        -0.1935 
     47 C          27.4961    1.1087   -9.5299 C.2       7 UNK         0.5018 
     48 O          27.5052    1.0448  -10.7596 O.2       7 UNK        -0.5186 
     49 N          27.4037    0.0368   -8.7286 N.am      8 UNK        -0.4240 
     50 CA         27.4494   -1.3453   -9.2092 C.3       8 UNK         0.0235 
     51 CB         26.5987   -2.2527   -8.3059 C.3       8 UNK        -0.2000 
     52 C          28.8934   -1.8566   -9.2881 C.2       8 UNK         0.4941 
     53 O          29.2467   -2.5126  -10.2685 O.2       8 UNK        -0.5273 
     54 N          29.6984   -1.5540   -8.2597 N.am      9 UNK        -0.4262 
     55 CA         31.0928   -1.9897   -8.1516 C.3       9 UNK         0.0264 
     56 CB         31.5744   -1.7530   -6.7169 C.3       9 UNK        -0.1955 
     57 C          32.0490   -1.3092   -9.1470 C.2       9 UNK         0.5031 
     58 O          33.0480   -1.9232   -9.5238 O.2       9 UNK        -0.5390 
     59 N          31.7466   -0.0579   -9.5264 N.am      10 UNK        -0.4204 
     60 CA         32.5411    0.8393  -10.3768 C.3       10 UNK         0.0237 
     61 CB         32.7186    0.2628  -11.7981 C.3       10 UNK        -0.1985 
     62 C          33.8719    1.2811   -9.7313 C.2       10 UNK         0.4970 
     63 O          34.7990    1.6658  -10.4466 O.2       10 UNK        -0.4914 
     64 N          33.9410    1.2318   -8.3955 N.am      11 UNK        -0.4285 
     65 CA         35.0609    1.7182   -7.5803 C.3       11 UNK         0.1007 
     66 C          35.1152    3.2697   -7.4896 C.2       11 UNK         0.5703 
     67 N          36.2658    3.8261   -7.1341 N.am      11 UNK        -0.7361 
     68 O          34.1315    3.9723   -7.7176 O.2       11 UNK        -0.4986 
     69 C69        35.0839    1.0370   -6.1839 C.3       12 UNK        -0.0947 
     70 S70        33.5092    1.1615   -5.2700 S.3       12 UNK        -0.2240 
     71 C71        33.7289   -0.1308   -4.0063 C.3       12 UNK         0.0194 
     72 H72        27.1200   -8.9301   -4.3484 H         1 UNK         0.0906 
     73 H73        25.5456   -8.5222   -5.0361 H         1 UNK         0.0906 
     74 H74        27.0252   -8.0246   -5.8599 H         1 UNK         0.0906 
     75 H75        27.4426   -5.8397   -5.5814 H         1 UNK         0.3140 
     76 H76        27.3351   -4.5750   -2.9625 H         1 UNK         0.1085 
     77 H77        28.3461   -2.6278   -4.1381 H         1 UNK         0.0836 
     78 H78        28.1550   -3.4217   -5.6721 H         1 UNK         0.0836 
     79 H79        29.6955   -4.0070   -2.0373 H         1 UNK         0.0731 
     80 H80        31.3412   -4.3891   -2.4612 H         1 UNK         0.0731 
     81 H81        32.6796   -2.6448   -3.8618 H         1 UNK         0.1312 
     82 H82        31.8659    1.4082   -2.7273 H         1 UNK         0.1406 
     83 H83        29.1185   -1.7251   -1.6867 H         1 UNK         0.1631 
     84 H84        29.5947    1.9809   -1.9479 H         1 UNK         0.0717 
     85 H85        29.9481    1.1736   -0.4432 H         1 UNK         0.0717 
     86 H86        25.9381    1.3729   -2.4655 H         1 UNK         0.0934 
     87 H87        27.3348    2.2281   -2.9675 H         1 UNK         0.0934 
     88 H88        27.1969   -0.7760   -3.5445 H         1 UNK         0.0739 
     89 H89        25.3246   -0.7675   -4.6140 H         1 UNK         0.3093 
     90 H90        23.3220    1.8122   -6.1193 H         1 UNK         0.0818 
     91 H91        22.8690   -0.0053   -7.6998 H         1 UNK         0.0819 
     92 H92        24.5333    0.4974   -7.9399 H         1 UNK         0.0819 
     93 H93        24.1840   -0.9754   -7.0429 H         1 UNK         0.0819 
     94 H94        22.7091   -0.8244   -5.1875 H         1 UNK         0.3041 
     95 H95        22.0446   -0.1562   -1.8309 H         1 UNK         0.0784 
     96 H96        19.9892    0.9069   -2.7669 H         1 UNK         0.0793 
     97 H97        19.8878   -0.3331   -4.0086 H         1 UNK         0.0793 
     98 H98        19.6782   -0.7585   -2.3090 H         1 UNK         0.0793 
     99 H99        21.3375   -2.3013   -3.6307 H         1 UNK         0.3024 
    100 H100       22.8956   -4.4658   -2.5923 H         1 UNK         0.1171 
    101 H101       22.8658   -5.1182   -5.0469 H         1 UNK         0.0786 
    102 H102       23.0268   -3.4211   -5.4788 H         1 UNK         0.0786 
    103 H103       21.5939   -3.9950   -4.6287 H         1 UNK         0.0786 
    104 H104       25.0051   -5.1040   -2.8778 H         1 UNK         0.2977 
    105 H105       28.5910    2.2785   -4.1741 H         1 UNK         0.3127 
    106 H106       30.6949    1.2732   -5.7508 H         1 UNK         0.0770 
    107 H107       29.7804    4.1665   -5.3115 H         1 UNK         0.0814 
    108 H108       31.3398    3.6772   -5.9627 H         1 UNK         0.0814 
    109 H109       30.9264    3.2742   -4.3068 H         1 UNK         0.0814 
    110 H110       27.5503    2.5629   -6.7342 H         1 UNK         0.2983 
    111 H111       28.2842    3.0894   -9.4822 H         1 UNK         0.0947 
    112 H112       25.8353    3.3009   -9.8197 H         1 UNK         0.0806 
    113 H113       26.3415    4.2034   -8.4012 H         1 UNK         0.0806 
    114 H114       25.5266    2.6529   -8.2175 H         1 UNK         0.0806 
    115 H115       27.4567    0.1730   -7.7264 H         1 UNK         0.3000 
    116 H116       27.0301   -1.3993  -10.2166 H         1 UNK         0.0850 
    117 H117       26.7812   -3.3071   -8.5182 H         1 UNK         0.0810 
    118 H118       25.5374   -2.0796   -8.4733 H         1 UNK         0.0810 
    119 H119       26.8075   -2.0915   -7.2482 H         1 UNK         0.0810 
    120 H120       29.3080   -1.0620   -7.4603 H         1 UNK         0.3040 
    121 H121       31.1231   -3.0639   -8.3462 H         1 UNK         0.0766 
    122 H122       32.5858   -2.1337   -6.5698 H         1 UNK         0.0812 
    123 H123       30.9269   -2.2518   -5.9986 H         1 UNK         0.0812 
    124 H124       31.5822   -0.6943   -6.4676 H         1 UNK         0.0812 
    125 H125       30.9461    0.3929   -9.0881 H         1 UNK         0.3205 
    126 H126       31.9479    1.7502  -10.4704 H         1 UNK         0.0754 
    127 H127       33.1523    1.0047  -12.4696 H         1 UNK         0.0769 
    128 H128       31.7622   -0.0390  -12.2252 H         1 UNK         0.0769 
    129 H129       33.3790   -0.6047  -11.8057 H         1 UNK         0.0769 
    130 H130       33.1178    0.9587   -7.8806 H         1 UNK         0.2981 
    131 H131       35.9761    1.4152   -8.0930 H         1 UNK         0.0541 
    132 H132       37.0798    3.2645   -6.9386 H         1 UNK         0.3459 
    133 H133       36.3210    4.8299   -7.0616 H         1 UNK         0.3459 
    134 H134       35.8854    1.4388   -5.5617 H         1 UNK         0.0612 
    135 H135       35.3156   -0.0207   -6.3177 H         1 UNK         0.0612 
    136 H136       34.2277   -0.9892   -4.4583 H         1 UNK         0.0624 
    137 H137       34.3951    0.2416   -3.2272 H         1 UNK         0.0624 
@<TRIPOS>BOND
     1    1    2 1    
     2    1   72 1    
     3    1   73 1    
     4    1   74 1    
     5    2    3 2    
     6    2    4 am   BACKBONE|DICT|INTERRES
     7    4    5 1    
     8    4   75 1    
     9    5    6 1    
    10    5   35 1    
    11    5   76 1    
    12    6    7 1    
    13    6   77 1    
    14    6   78 1    
    15    7    8 1    
    16    8    9 1    
    17    8   79 1    
    18    8   80 1    
    19    9   10 ar   
    20    9   14 ar   
    21   10   11 ar   
    22   10   81 1    
    23   11   12 ar   
    24   11   71 1    
    25   12   13 ar   
    26   12   82 1    
    27   13   14 ar   
    28   13   15 1    
    29   14   83 1    
    30   15   16 1    
    31   15   84 1    
    32   15   85 1    
    33   16   17 1    
    34   17   18 1    
    35   17   86 1    
    36   17   87 1    
    37   18   19 1    
    38   18   37 1    
    39   18   88 1    
    40   19   20 am   BACKBONE|DICT|INTERRES
    41   19   89 1    
    42   20   21 2    
    43   20   22 1    
    44   22   23 1    
    45   22   24 1    
    46   22   90 1    
    47   23   91 1    
    48   23   92 1    
    49   23   93 1    
    50   24   25 am   BACKBONE|DICT|INTERRES
    51   24   94 1    
    52   25   26 2    
    53   25   27 1    
    54   27   28 1    
    55   27   29 1    
    56   27   95 1    
    57   28   96 1    
    58   28   97 1    
    59   28   98 1    
    60   29   30 am   BACKBONE|DICT|INTERRES
    61   29   99 1    
    62   30   31 2    
    63   30   32 1    
    64   32   33 1    
    65   32   34 1    
    66   32  100 1    
    67   33  101 1    
    68   33  102 1    
    69   33  103 1    
    70   34   35 am   BACKBONE|DICT|INTERRES
    71   34  104 1    
    72   35   36 2    
    73   37   38 2    
    74   37   39 am   BACKBONE|DICT|INTERRES
    75   39   40 1    
    76   39  105 1    
    77   40   41 1    
    78   40   42 1    
    79   40  106 1    
    80   41  107 1    
    81   41  108 1    
    82   41  109 1    
    83   42   43 2    
    84   42   44 am   BACKBONE|DICT|INTERRES
    85   44   45 1    
    86   44  110 1    
    87   45   46 1    
    88   45   47 1    
    89   45  111 1    
    90   46  112 1    
    91   46  113 1    
    92   46  114 1    
    93   47   48 2    
    94   47   49 am   BACKBONE|DICT|INTERRES
    95   49   50 1    
    96   49  115 1    
    97   50   51 1    
    98   50   52 1    
    99   50  116 1    
   100   51  117 1    
   101   51  118 1    
   102   51  119 1    
   103   52   53 2    
   104   52   54 am   BACKBONE|DICT|INTERRES
   105   54   55 1    
   106   54  120 1    
   107   55   56 1    
   108   55   57 1    
   109   55  121 1    
   110   56  122 1    
   111   56  123 1    
   112   56  124 1    
   113   57   58 2    
   114   57   59 am   BACKBONE|DICT|INTERRES
   115   59   60 1    
   116   59  125 1    
   117   60   61 1    
   118   60   62 1    
   119   60  126 1    
   120   61  127 1    
   121   61  128 1    
   122   61  129 1    
   123   62   63 2    
   124   62   64 am   BACKBONE|DICT|INTERRES
   125   64   65 1    
   126   64  130 1    
   127   65   66 1    
   128   65   69 1    
   129   65  131 1    
   130   66   67 am   BACKBONE|DICT|INTERRES
   131   66   68 2    
   132   67  132 1    
   133   67  133 1    
   134   69   70 1    
   135   69  134 1    
   136   69  135 1    
   137   70   71 1    
   138   71  136 1    
   139   71  137 1    
@<TRIPOS>SUBSTRUCTURE
     1 UNK         1 GROUP             0       ****    0 ROOT    
