@<TRIPOS>MOLECULE
3R137
137   139    1
SMALL
USER_CHARGES


@<TRIPOS>ATOM
      1 CA         31.2081    0.3383   -1.2938 C.3       0 UNK        -0.2020 
      2 C          30.1152   -0.6288   -1.7151 C.2       0 UNK         0.4855 
      3 O          29.4143   -0.3829   -2.6962 O.2       0 UNK        -0.5197 
      4 N          29.9696   -1.7291   -0.9692 N.am      1 UNK        -0.4892 
      5 CA         28.9376   -2.7520   -1.1617 C.3       1 UNK         0.0835 
      6 C6         29.2135   -4.0347   -0.3241 C.3       12 UNK        -0.0855 
      7 S7         30.9667   -4.5573   -0.2591 S.3       12 UNK        -0.2931 
      8 C8         31.0598   -5.8337   -1.5507 C.3       12 UNK         0.0378 
      9 C9         31.0318   -5.2244   -2.9432 C.ar      12 UNK        -0.0802 
     10 C10        32.1519   -4.5479   -3.4389 C.ar      12 UNK        -0.0944 
     11 C11        32.1399   -3.9918   -4.7222 C.ar      12 UNK        -0.0787 
     12 C12        30.9928   -4.1286   -5.5112 C.ar      12 UNK        -0.0862 
     13 C13        29.8619   -4.7841   -5.0192 C.ar      12 UNK        -0.0733 
     14 C14        29.8902   -5.3426   -3.7392 C.ar      12 UNK        -0.0832 
     15 C15        28.5999   -4.8621   -5.8629 C.3       12 UNK         0.0240 
     16 S16        27.2324   -3.9215   -5.1159 S.3       12 UNK        -0.2522 
     17 C17        27.9056   -2.2243   -5.0617 C.3       12 UNK        -0.0967 
     18 CA         27.5020   -1.3787   -6.2876 C.3       5 UNK         0.0660 
     19 N          26.0443   -1.2738   -6.4383 N.am      5 UNK        -0.4015 
     20 C          25.4320   -0.6725   -7.4692 C.2       4 UNK         0.4946 
     21 O          26.0416   -0.1663   -8.4104 O.2       4 UNK        -0.5353 
     22 CA         23.8996   -0.5569   -7.4518 C.3       4 UNK         0.0277 
     23 CB         23.2777   -1.6356   -8.3521 C.3       4 UNK        -0.1981 
     24 N          23.2889   -0.6201   -6.1226 N.am      4 UNK        -0.4209 
     25 C          23.5466    0.1987   -5.0925 C.2       3 UNK         0.4942 
     26 O          24.3801    1.1064   -5.1268 O.2       3 UNK        -0.5208 
     27 CA         22.7668   -0.0589   -3.7875 C.3       3 UNK         0.0250 
     28 CB         21.5770   -1.0342   -3.9462 C.3       3 UNK        -0.1990 
     29 N          23.6312   -0.5117   -2.6910 N.am      3 UNK        -0.4232 
     30 C          24.5230   -1.5134   -2.7205 C.2       2 UNK         0.4993 
     31 O          24.7989   -2.1745   -3.7242 O.2       2 UNK        -0.5286 
     32 CA         25.1834   -1.8634   -1.3846 C.3       2 UNK         0.0209 
     33 CB         24.3453   -2.9037   -0.6202 C.3       2 UNK        -0.1931 
     34 N          26.5286   -2.3923   -1.6115 N.am      2 UNK        -0.4546 
     35 C          27.5589   -2.1641   -0.7888 C.2       1 UNK         0.5154 
     36 O          27.4517   -1.5267    0.2636 O.2       1 UNK        -0.5181 
     37 C          28.2022   -0.0033   -6.2290 C.2       5 UNK         0.5014 
     38 O          29.3371    0.1189   -6.6923 O.2       5 UNK        -0.5248 
     39 N          27.5074    1.0178   -5.7094 N.am      6 UNK        -0.4434 
     40 CA         28.0009    2.3919   -5.6465 C.3       6 UNK         0.0363 
     41 CB         27.2333    3.1430   -4.5469 C.3       6 UNK        -0.1936 
     42 C          27.9010    3.1447   -6.9875 C.2       6 UNK         0.5081 
     43 O          28.4971    4.2157   -7.1001 O.2       6 UNK        -0.5248 
     44 N          27.1541    2.6064   -7.9634 N.am      7 UNK        -0.4718 
     45 CA         26.8431    3.2707   -9.2315 C.3       7 UNK         0.0273 
     46 CB         25.3190    3.4540   -9.3420 C.3       7 UNK        -0.1935 
     47 C          27.3836    2.4987  -10.4422 C.2       7 UNK         0.5018 
     48 O          28.0862    3.0867  -11.2642 O.2       7 UNK        -0.5186 
     49 N          27.0336    1.2099  -10.5471 N.am      8 UNK        -0.4240 
     50 CA         27.3703    0.3443  -11.6778 C.3       8 UNK         0.0235 
     51 CB         26.3689   -0.8213  -11.7556 C.3       8 UNK        -0.2000 
     52 C          28.8114   -0.1685  -11.5841 C.2       8 UNK         0.4941 
     53 O          29.5702   -0.0220  -12.5429 O.2       8 UNK        -0.5273 
     54 N          29.1676   -0.7385  -10.4237 N.am      9 UNK        -0.4262 
     55 CA         30.5376   -1.1649  -10.1178 C.3       9 UNK         0.0264 
     56 CB         30.5149   -2.2570   -9.0360 C.3       9 UNK        -0.1955 
     57 C          31.4332    0.0158   -9.6983 C.2       9 UNK         0.5031 
     58 O          32.6510   -0.0697   -9.8606 O.2       9 UNK        -0.5390 
     59 N          30.8087    1.0898   -9.1883 N.am      10 UNK        -0.4204 
     60 CA         31.4075    2.3413   -8.7121 C.3       10 UNK         0.0237 
     61 CB         32.0387    3.1268   -9.8812 C.3       10 UNK        -0.1985 
     62 C          32.3693    2.1343   -7.5259 C.2       10 UNK         0.4970 
     63 O          33.4034    2.8007   -7.4491 O.2       10 UNK        -0.4914 
     64 N          32.0099    1.2149   -6.6214 N.am      11 UNK        -0.4285 
     65 CA         32.8039    0.8557   -5.4359 C.3       11 UNK         0.1007 
     66 C          32.7013    1.8710   -4.2622 C.2       11 UNK         0.5703 
     67 N          31.8139    2.8584   -4.3035 N.am      11 UNK        -0.7361 
     68 O          33.4648    1.7770   -3.3047 O.2       11 UNK        -0.4986 
     69 C69        32.5096   -0.5974   -4.9779 C.3       12 UNK        -0.0947 
     70 S70        33.0217   -1.7992   -6.2503 S.3       12 UNK        -0.2240 
     71 C71        33.3839   -3.2855   -5.2556 C.3       12 UNK         0.0194 
     72 H72        30.9927    1.3422   -1.6590 H         1 UNK         0.0906 
     73 H73        31.2961    0.3876   -0.2087 H         1 UNK         0.0906 
     74 H74        32.1665    0.0211   -1.7025 H         1 UNK         0.0906 
     75 H75        30.5780   -1.8832   -0.1778 H         1 UNK         0.3140 
     76 H76        28.9361   -3.0206   -2.2202 H         1 UNK         0.1085 
     77 H77        28.9105   -3.8850    0.7146 H         1 UNK         0.0836 
     78 H78        28.6004   -4.8599   -0.6909 H         1 UNK         0.0836 
     79 H79        30.2519   -6.5548   -1.4165 H         1 UNK         0.0731 
     80 H80        31.9886   -6.3922   -1.4251 H         1 UNK         0.0731 
     81 H81        33.0347   -4.4579   -2.8205 H         1 UNK         0.1312 
     82 H82        30.9737   -3.7096   -6.5069 H         1 UNK         0.1406 
     83 H83        29.0152   -5.8535   -3.3605 H         1 UNK         0.1631 
     84 H84        28.2994   -5.9055   -5.9667 H         1 UNK         0.0717 
     85 H85        28.7774   -4.4892   -6.8730 H         1 UNK         0.0717 
     86 H86        27.5419   -1.7466   -4.1514 H         1 UNK         0.0934 
     87 H87        28.9910   -2.2562   -4.9554 H         1 UNK         0.0934 
     88 H88        27.8756   -1.8829   -7.1807 H         1 UNK         0.0739 
     89 H89        25.4873   -1.6633   -5.6838 H         1 UNK         0.3093 
     90 H90        23.6528    0.4206   -7.8710 H         1 UNK         0.0818 
     91 H91        22.1998   -1.5028   -8.4467 H         1 UNK         0.0819 
     92 H92        23.6959   -1.5926   -9.3592 H         1 UNK         0.0819 
     93 H93        23.4618   -2.6390   -7.9658 H         1 UNK         0.0819 
     94 H94        22.6146   -1.3568   -5.9739 H         1 UNK         0.3041 
     95 H95        22.3616    0.9084   -3.4865 H         1 UNK         0.0784 
     96 H96        20.8908   -0.7029   -4.7271 H         1 UNK         0.0793 
     97 H97        21.9018   -2.0471   -4.1882 H         1 UNK         0.0793 
     98 H98        20.9983   -1.0920   -3.0241 H         1 UNK         0.0793 
     99 H99        23.5053   -0.0158   -1.8195 H         1 UNK         0.3024 
    100 H100       25.2420   -0.9465   -0.7926 H         1 UNK         0.1171 
    101 H101       23.3325   -2.5397   -0.4422 H         1 UNK         0.0786 
    102 H102       24.2636   -3.8392   -1.1754 H         1 UNK         0.0786 
    103 H103       24.7832   -3.1288    0.3525 H         1 UNK         0.0786 
    104 H104       26.6527   -2.8864   -2.4870 H         1 UNK         0.2977 
    105 H105       26.5586    0.8612   -5.3867 H         1 UNK         0.3127 
    106 H106       29.0548    2.3678   -5.3632 H         1 UNK         0.0770 
    107 H107       26.1684    3.2108   -4.7732 H         1 UNK         0.0814 
    108 H108       27.6082    4.1610   -4.4331 H         1 UNK         0.0814 
    109 H109       27.3413    2.6491   -3.5810 H         1 UNK         0.0814 
    110 H110       26.7390    1.6937   -7.8153 H         1 UNK         0.2983 
    111 H111       27.2954    4.2646   -9.2637 H         1 UNK         0.0947 
    112 H112       25.0489    3.9288  -10.2863 H         1 UNK         0.0806 
    113 H113       24.9408    4.0898   -8.5412 H         1 UNK         0.0806 
    114 H114       24.7877    2.5028   -9.2897 H         1 UNK         0.0806 
    115 H115       26.5050    0.7753   -9.7906 H         1 UNK         0.3000 
    116 H116       27.2806    0.9247  -12.5990 H         1 UNK         0.0850 
    117 H117       26.5935   -1.4722  -12.6016 H         1 UNK         0.0810 
    118 H118       25.3502   -0.4570  -11.8893 H         1 UNK         0.0810 
    119 H119       26.3850   -1.4377  -10.8560 H         1 UNK         0.0810 
    120 H120       28.4731   -0.8361   -9.6965 H         1 UNK         0.3040 
    121 H121       30.9750   -1.6025  -11.0181 H         1 UNK         0.0766 
    122 H122       30.1604   -1.8789   -8.0788 H         1 UNK         0.0812 
    123 H123       31.5179   -2.6531   -8.8718 H         1 UNK         0.0812 
    124 H124       29.8806   -3.0947   -9.3257 H         1 UNK         0.0812 
    125 H125       29.8114    1.0109   -9.0549 H         1 UNK         0.3205 
    126 H126       30.5849    2.9435   -8.3274 H         1 UNK         0.0754 
    127 H127       32.3654    4.1158   -9.5574 H         1 UNK         0.0769 
    128 H128       31.3226    3.2724  -10.6904 H         1 UNK         0.0769 
    129 H129       32.9094    2.6140  -10.2910 H         1 UNK         0.0769 
    130 H130       31.1256    0.7239   -6.7319 H         1 UNK         0.2981 
    131 H131       33.8549    0.8846   -5.7308 H         1 UNK         0.0541 
    132 H132       31.2089    2.9657   -5.0995 H         1 UNK         0.3459 
    133 H133       31.7748    3.5173   -3.5426 H         1 UNK         0.3459 
    134 H134       31.4471   -0.7330   -4.7668 H         1 UNK         0.0612 
    135 H135       33.0428   -0.8282   -4.0541 H         1 UNK         0.0612 
    136 H136       33.9331   -3.9902   -5.8809 H         1 UNK         0.0624 
    137 H137       34.0542   -3.0099   -4.4400 H         1 UNK         0.0624 
@<TRIPOS>BOND
     1    1    2 1    
     2    1   72 1    
     3    1   73 1    
     4    1   74 1    
     5    2    3 2    
     6    2    4 am   BACKBONE|DICT|INTERRES
     7    4    5 1    
     8    4   75 1    
     9    5    6 1    
    10    5   35 1    
    11    5   76 1    
    12    6    7 1    
    13    6   77 1    
    14    6   78 1    
    15    7    8 1    
    16    8    9 1    
    17    8   79 1    
    18    8   80 1    
    19    9   10 ar   
    20    9   14 ar   
    21   10   11 ar   
    22   10   81 1    
    23   11   12 ar   
    24   11   71 1    
    25   12   13 ar   
    26   12   82 1    
    27   13   14 ar   
    28   13   15 1    
    29   14   83 1    
    30   15   16 1    
    31   15   84 1    
    32   15   85 1    
    33   16   17 1    
    34   17   18 1    
    35   17   86 1    
    36   17   87 1    
    37   18   19 1    
    38   18   37 1    
    39   18   88 1    
    40   19   20 am   BACKBONE|DICT|INTERRES
    41   19   89 1    
    42   20   21 2    
    43   20   22 1    
    44   22   23 1    
    45   22   24 1    
    46   22   90 1    
    47   23   91 1    
    48   23   92 1    
    49   23   93 1    
    50   24   25 am   BACKBONE|DICT|INTERRES
    51   24   94 1    
    52   25   26 2    
    53   25   27 1    
    54   27   28 1    
    55   27   29 1    
    56   27   95 1    
    57   28   96 1    
    58   28   97 1    
    59   28   98 1    
    60   29   30 am   BACKBONE|DICT|INTERRES
    61   29   99 1    
    62   30   31 2    
    63   30   32 1    
    64   32   33 1    
    65   32   34 1    
    66   32  100 1    
    67   33  101 1    
    68   33  102 1    
    69   33  103 1    
    70   34   35 am   BACKBONE|DICT|INTERRES
    71   34  104 1    
    72   35   36 2    
    73   37   38 2    
    74   37   39 am   BACKBONE|DICT|INTERRES
    75   39   40 1    
    76   39  105 1    
    77   40   41 1    
    78   40   42 1    
    79   40  106 1    
    80   41  107 1    
    81   41  108 1    
    82   41  109 1    
    83   42   43 2    
    84   42   44 am   BACKBONE|DICT|INTERRES
    85   44   45 1    
    86   44  110 1    
    87   45   46 1    
    88   45   47 1    
    89   45  111 1    
    90   46  112 1    
    91   46  113 1    
    92   46  114 1    
    93   47   48 2    
    94   47   49 am   BACKBONE|DICT|INTERRES
    95   49   50 1    
    96   49  115 1    
    97   50   51 1    
    98   50   52 1    
    99   50  116 1    
   100   51  117 1    
   101   51  118 1    
   102   51  119 1    
   103   52   53 2    
   104   52   54 am   BACKBONE|DICT|INTERRES
   105   54   55 1    
   106   54  120 1    
   107   55   56 1    
   108   55   57 1    
   109   55  121 1    
   110   56  122 1    
   111   56  123 1    
   112   56  124 1    
   113   57   58 2    
   114   57   59 am   BACKBONE|DICT|INTERRES
   115   59   60 1    
   116   59  125 1    
   117   60   61 1    
   118   60   62 1    
   119   60  126 1    
   120   61  127 1    
   121   61  128 1    
   122   61  129 1    
   123   62   63 2    
   124   62   64 am   BACKBONE|DICT|INTERRES
   125   64   65 1    
   126   64  130 1    
   127   65   66 1    
   128   65   69 1    
   129   65  131 1    
   130   66   67 am   BACKBONE|DICT|INTERRES
   131   66   68 2    
   132   67  132 1    
   133   67  133 1    
   134   69   70 1    
   135   69  134 1    
   136   69  135 1    
   137   70   71 1    
   138   71  136 1    
   139   71  137 1    
@<TRIPOS>SUBSTRUCTURE
     1 UNK         1 GROUP             0       ****    0 ROOT    
