@<TRIPOS>MOLECULE
3R137
137   139    1
SMALL
USER_CHARGES


@<TRIPOS>ATOM
      1 CA         26.4308   -3.9508    1.5936 C.3       0 UNK        -0.2020 
      2 C          27.1049   -3.3769    0.3565 C.2       0 UNK         0.4855 
      3 O          26.5068   -3.3859   -0.7196 O.2       0 UNK        -0.5197 
      4 N          28.3372   -2.8712    0.5104 N.am      1 UNK        -0.4892 
      5 CA         29.2132   -2.2698   -0.5112 C.3       1 UNK         0.0835 
      6 C6         29.5314   -3.1964   -1.7131 C.3       12 UNK        -0.0855 
      7 S7         30.3003   -4.7754   -1.2049 S.3       12 UNK        -0.2931 
      8 C8         31.8733   -4.7508   -2.1388 C.3       12 UNK         0.0378 
      9 C9         31.7264   -4.6198   -3.6565 C.ar      12 UNK        -0.0802 
     10 C10        32.7790   -4.0642   -4.3913 C.ar      12 UNK        -0.0944 
     11 C11        32.6715   -3.8907   -5.7739 C.ar      12 UNK        -0.0787 
     12 C12        31.4922   -4.2626   -6.4251 C.ar      12 UNK        -0.0862 
     13 C13        30.4303   -4.8190   -5.7068 C.ar      12 UNK        -0.0733 
     14 C14        30.5678   -5.0254   -4.3318 C.ar      12 UNK        -0.0832 
     15 C15        29.1202   -5.1566   -6.4106 C.3       12 UNK         0.0240 
     16 S16        27.6720   -4.3533   -5.6361 S.3       12 UNK        -0.2522 
     17 C17        28.1452   -2.5905   -5.6600 C.3       12 UNK        -0.0967 
     18 CA         27.4204   -1.7966   -6.7682 C.3       5 UNK         0.0660 
     19 N          25.9682   -1.7529   -6.5759 N.am      5 UNK        -0.4015 
     20 C          25.1021   -1.3972   -7.5354 C.2       4 UNK         0.4946 
     21 O          25.4404   -1.0921   -8.6775 O.2       4 UNK        -0.5353 
     22 CA         23.6133   -1.3225   -7.1593 C.3       4 UNK         0.0277 
     23 CB         22.9430   -2.6932   -7.3426 C.3       4 UNK        -0.1981 
     24 N          23.3727   -0.8360   -5.7994 N.am      4 UNK        -0.4209 
     25 C          23.7602    0.3566   -5.3262 C.2       3 UNK         0.4942 
     26 O          24.3683    1.1918   -5.9976 O.2       3 UNK        -0.5208 
     27 CA         23.4501    0.6671   -3.8493 C.3       3 UNK         0.0250 
     28 CB         22.5289   -0.3695   -3.1648 C.3       3 UNK        -0.1990 
     29 N          24.6674    0.8568   -3.0501 N.am      3 UNK        -0.4232 
     30 C          25.6988    0.0073   -2.9243 C.2       2 UNK         0.4993 
     31 O          25.8073   -1.0405   -3.5669 O.2       2 UNK        -0.5286 
     32 CA         26.7971    0.3957   -1.9200 C.3       2 UNK         0.0209 
     33 CB         26.2729    1.2070   -0.7140 C.3       2 UNK        -0.1931 
     34 N          27.4679   -0.8130   -1.4501 N.am      2 UNK        -0.4546 
     35 C          28.7179   -0.8871   -0.9843 C.2       1 UNK         0.5154 
     36 O          29.4660    0.0869   -0.8945 O.2       1 UNK        -0.5181 
     37 C          28.0172   -0.3826   -6.8944 C.2       5 UNK         0.5014 
     38 O          28.9562   -0.1916   -7.6697 O.2       5 UNK        -0.5248 
     39 N          27.4665    0.5885   -6.1490 N.am      6 UNK        -0.4434 
     40 CA         27.8478    1.9983   -6.2516 C.3       6 UNK         0.0363 
     41 CB         27.2959    2.8125   -5.0718 C.3       6 UNK        -0.1936 
     42 C          27.4183    2.6006   -7.5956 C.2       6 UNK         0.5081 
     43 O          28.2279    3.2612   -8.2451 O.2       6 UNK        -0.5248 
     44 N          26.1791    2.3102   -8.0143 N.am      7 UNK        -0.4718 
     45 CA         25.6396    2.6893   -9.3222 C.3       7 UNK         0.0273 
     46 CB         24.1539    2.3028   -9.3954 C.3       7 UNK        -0.1935 
     47 C          26.4236    2.0778  -10.4981 C.2       7 UNK         0.5018 
     48 O          26.6450    2.7662  -11.4952 O.2       7 UNK        -0.5186 
     49 N          26.8332    0.8093  -10.3571 N.am      8 UNK        -0.4240 
     50 CA         27.6166    0.0788  -11.3505 C.3       8 UNK         0.0235 
     51 CB         27.5598   -1.4305  -11.0601 C.3       8 UNK        -0.2000 
     52 C          29.0754    0.5499  -11.4512 C.2       8 UNK         0.4941 
     53 O          29.5341    0.8064  -12.5659 O.2       8 UNK        -0.5273 
     54 N          29.7945    0.6015  -10.3187 N.am      9 UNK        -0.4262 
     55 CA         31.2589    0.6966  -10.3180 C.3       9 UNK         0.0264 
     56 CB         31.8456   -0.7298  -10.3760 C.3       9 UNK        -0.1955 
     57 C          31.8515    1.5057   -9.1525 C.2       9 UNK         0.5031 
     58 O          33.0575    1.4011   -8.9253 O.2       9 UNK        -0.5390 
     59 N          31.0403    2.2868   -8.4225 N.am      10 UNK        -0.4204 
     60 CA         31.4011    3.1398   -7.2720 C.3       10 UNK         0.0237 
     61 CB         32.4349    4.2156   -7.6619 C.3       10 UNK        -0.1985 
     62 C          31.8386    2.3903   -5.9953 C.2       10 UNK         0.4970 
     63 O          31.5491    2.8725   -4.9006 O.2       10 UNK        -0.4914 
     64 N          32.5035    1.2396   -6.1410 N.am      11 UNK        -0.4285 
     65 CA         32.9605    0.3491   -5.0617 C.3       11 UNK         0.1007 
     66 C          31.8416   -0.3450   -4.2324 C.2       11 UNK         0.5703 
     67 N          30.5885   -0.3343   -4.6669 N.am      11 UNK        -0.7361 
     68 O          32.1166   -0.8750   -3.1593 O.2       11 UNK        -0.4986 
     69 C69        34.0300   -0.6568   -5.5685 C.3       12 UNK        -0.0947 
     70 S70        33.5311   -1.5882   -7.0606 S.3       12 UNK        -0.2240 
     71 C71        33.8295   -3.3143   -6.5735 C.3       12 UNK         0.0194 
     72 H72        27.0656   -3.8795    2.4767 H         1 UNK         0.0906 
     73 H73        25.5039   -3.4155    1.7978 H         1 UNK         0.0906 
     74 H74        26.1896   -5.0014    1.4342 H         1 UNK         0.0906 
     75 H75        28.7421   -2.8874    1.4366 H         1 UNK         0.3140 
     76 H76        30.1601   -2.0827   -0.0011 H         1 UNK         0.1085 
     77 H77        28.6305   -3.4237   -2.2857 H         1 UNK         0.0836 
     78 H78        30.1993   -2.6829   -2.4068 H         1 UNK         0.0836 
     79 H79        32.4782   -3.9266   -1.7565 H         1 UNK         0.0731 
     80 H80        32.4228   -5.6671   -1.9203 H         1 UNK         0.0731 
     81 H81        33.6831   -3.7571   -3.8835 H         1 UNK         0.1312 
     82 H82        31.4007   -4.1042   -7.4911 H         1 UNK         0.1406 
     83 H83        29.7431   -5.4625   -3.7867 H         1 UNK         0.1631 
     84 H84        28.9764   -6.2376   -6.3950 H         1 UNK         0.0717 
     85 H85        29.1576   -4.8639   -7.4611 H         1 UNK         0.0717 
     86 H86        29.2252   -2.5076   -5.7853 H         1 UNK         0.0934 
     87 H87        27.9292   -2.1701   -4.6766 H         1 UNK         0.0934 
     88 H88        27.6142   -2.3036   -7.7159 H         1 UNK         0.0739 
     89 H89        25.6300   -1.9421   -5.6399 H         1 UNK         0.3093 
     90 H90        23.1395   -0.6173   -7.8451 H         1 UNK         0.0818 
     91 H91        21.8674   -2.6359   -7.1748 H         1 UNK         0.0819 
     92 H92        23.0907   -3.0658   -8.3574 H         1 UNK         0.0819 
     93 H93        23.3519   -3.4389   -6.6595 H         1 UNK         0.0819 
     94 H94        22.8980   -1.4648   -5.1680 H         1 UNK         0.3041 
     95 H95        22.9260    1.6241   -3.8501 H         1 UNK         0.0784 
     96 H96        21.5874   -0.4842   -3.7041 H         1 UNK         0.0793 
     97 H97        22.9968   -1.3519   -3.0877 H         1 UNK         0.0793 
     98 H98        22.2742   -0.0524   -2.1534 H         1 UNK         0.0793 
     99 H99        24.6949    1.7095   -2.5093 H         1 UNK         0.3024 
    100 H100       27.5260    0.9994   -2.4617 H         1 UNK         0.1171 
    101 H101       27.0670    1.4069    0.0057 H         1 UNK         0.0786 
    102 H102       25.4783    0.6760   -0.1879 H         1 UNK         0.0786 
    103 H103       25.8821    2.1780   -1.0195 H         1 UNK         0.0786 
    104 H104       26.9255   -1.6738   -1.5041 H         1 UNK         0.2977 
    105 H105       26.6606    0.3664   -5.5805 H         1 UNK         0.3127 
    106 H106       28.9347    2.0496   -6.1997 H         1 UNK         0.0770 
    107 H107       26.2154    2.7174   -4.9709 H         1 UNK         0.0814 
    108 H108       27.5161    3.8736   -5.1980 H         1 UNK         0.0814 
    109 H109       27.7574    2.5074   -4.1350 H         1 UNK         0.0814 
    110 H110       25.5635    1.7930   -7.3911 H         1 UNK         0.2983 
    111 H111       25.7156    3.7755   -9.4066 H         1 UNK         0.0947 
    112 H112       23.7151    2.6189  -10.3427 H         1 UNK         0.0806 
    113 H113       23.5808    2.7754   -8.5974 H         1 UNK         0.0806 
    114 H114       24.0132    1.2248   -9.3143 H         1 UNK         0.0806 
    115 H115       26.5233    0.2841   -9.5441 H         1 UNK         0.3000 
    116 H116       27.1516    0.2433  -12.3252 H         1 UNK         0.0850 
    117 H117       28.1379   -1.9927  -11.7946 H         1 UNK         0.0810 
    118 H118       26.5361   -1.8029  -11.1015 H         1 UNK         0.0810 
    119 H119       27.9627   -1.6691  -10.0755 H         1 UNK         0.0810 
    120 H120       29.3590    0.3565   -9.4304 H         1 UNK         0.3040 
    121 H121       31.5888    1.2299  -11.2119 H         1 UNK         0.0766 
    122 H122       32.9357   -0.7155  -10.4117 H         1 UNK         0.0812 
    123 H123       31.5546   -1.3135   -9.5017 H         1 UNK         0.0812 
    124 H124       31.5065   -1.2648  -11.2631 H         1 UNK         0.0812 
    125 H125       30.0583    2.3269   -8.6764 H         1 UNK         0.3205 
    126 H126       30.4887    3.6740   -7.0070 H         1 UNK         0.0754 
    127 H127       32.5905    4.9181   -6.8420 H         1 UNK         0.0769 
    128 H128       32.0997    4.7932   -8.5233 H         1 UNK         0.0769 
    129 H129       33.4069    3.7848   -7.9033 H         1 UNK         0.0769 
    130 H130       32.7406    0.9508   -7.0856 H         1 UNK         0.2981 
    131 H131       33.4669    0.9955   -4.3426 H         1 UNK         0.0541 
    132 H132       30.3667    0.0772   -5.5592 H         1 UNK         0.3459 
    133 H133       29.8765   -0.7522   -4.0950 H         1 UNK         0.3459 
    134 H134       34.3225   -1.3464   -4.7749 H         1 UNK         0.0612 
    135 H135       34.9386   -0.1103   -5.8250 H         1 UNK         0.0612 
    136 H136       33.9672   -3.9089   -7.4777 H         1 UNK         0.0624 
    137 H137       34.7667   -3.3864   -6.0194 H         1 UNK         0.0624 
@<TRIPOS>BOND
     1    1    2 1    
     2    1   72 1    
     3    1   73 1    
     4    1   74 1    
     5    2    3 2    
     6    2    4 am   BACKBONE|DICT|INTERRES
     7    4    5 1    
     8    4   75 1    
     9    5    6 1    
    10    5   35 1    
    11    5   76 1    
    12    6    7 1    
    13    6   77 1    
    14    6   78 1    
    15    7    8 1    
    16    8    9 1    
    17    8   79 1    
    18    8   80 1    
    19    9   10 ar   
    20    9   14 ar   
    21   10   11 ar   
    22   10   81 1    
    23   11   12 ar   
    24   11   71 1    
    25   12   13 ar   
    26   12   82 1    
    27   13   14 ar   
    28   13   15 1    
    29   14   83 1    
    30   15   16 1    
    31   15   84 1    
    32   15   85 1    
    33   16   17 1    
    34   17   18 1    
    35   17   86 1    
    36   17   87 1    
    37   18   19 1    
    38   18   37 1    
    39   18   88 1    
    40   19   20 am   BACKBONE|DICT|INTERRES
    41   19   89 1    
    42   20   21 2    
    43   20   22 1    
    44   22   23 1    
    45   22   24 1    
    46   22   90 1    
    47   23   91 1    
    48   23   92 1    
    49   23   93 1    
    50   24   25 am   BACKBONE|DICT|INTERRES
    51   24   94 1    
    52   25   26 2    
    53   25   27 1    
    54   27   28 1    
    55   27   29 1    
    56   27   95 1    
    57   28   96 1    
    58   28   97 1    
    59   28   98 1    
    60   29   30 am   BACKBONE|DICT|INTERRES
    61   29   99 1    
    62   30   31 2    
    63   30   32 1    
    64   32   33 1    
    65   32   34 1    
    66   32  100 1    
    67   33  101 1    
    68   33  102 1    
    69   33  103 1    
    70   34   35 am   BACKBONE|DICT|INTERRES
    71   34  104 1    
    72   35   36 2    
    73   37   38 2    
    74   37   39 am   BACKBONE|DICT|INTERRES
    75   39   40 1    
    76   39  105 1    
    77   40   41 1    
    78   40   42 1    
    79   40  106 1    
    80   41  107 1    
    81   41  108 1    
    82   41  109 1    
    83   42   43 2    
    84   42   44 am   BACKBONE|DICT|INTERRES
    85   44   45 1    
    86   44  110 1    
    87   45   46 1    
    88   45   47 1    
    89   45  111 1    
    90   46  112 1    
    91   46  113 1    
    92   46  114 1    
    93   47   48 2    
    94   47   49 am   BACKBONE|DICT|INTERRES
    95   49   50 1    
    96   49  115 1    
    97   50   51 1    
    98   50   52 1    
    99   50  116 1    
   100   51  117 1    
   101   51  118 1    
   102   51  119 1    
   103   52   53 2    
   104   52   54 am   BACKBONE|DICT|INTERRES
   105   54   55 1    
   106   54  120 1    
   107   55   56 1    
   108   55   57 1    
   109   55  121 1    
   110   56  122 1    
   111   56  123 1    
   112   56  124 1    
   113   57   58 2    
   114   57   59 am   BACKBONE|DICT|INTERRES
   115   59   60 1    
   116   59  125 1    
   117   60   61 1    
   118   60   62 1    
   119   60  126 1    
   120   61  127 1    
   121   61  128 1    
   122   61  129 1    
   123   62   63 2    
   124   62   64 am   BACKBONE|DICT|INTERRES
   125   64   65 1    
   126   64  130 1    
   127   65   66 1    
   128   65   69 1    
   129   65  131 1    
   130   66   67 am   BACKBONE|DICT|INTERRES
   131   66   68 2    
   132   67  132 1    
   133   67  133 1    
   134   69   70 1    
   135   69  134 1    
   136   69  135 1    
   137   70   71 1    
   138   71  136 1    
   139   71  137 1    
@<TRIPOS>SUBSTRUCTURE
     1 UNK         1 GROUP             0       ****    0 ROOT    
