@<TRIPOS>MOLECULE
3R137
137   139    1
SMALL
USER_CHARGES


@<TRIPOS>ATOM
      1 CA         23.2037   -6.6455   -3.2552 C.3       0 UNK        -0.2020 
      2 C          24.3477   -5.6531   -3.3917 C.2       0 UNK         0.4855 
      3 O          24.2286   -4.6927   -4.1532 O.2       0 UNK        -0.5197 
      4 N          25.4428   -5.8685   -2.6452 N.am      1 UNK        -0.4892 
      5 CA         26.6680   -5.0536   -2.6334 C.3       1 UNK         0.0835 
      6 C6         27.5117   -5.2658   -3.9207 C.3       12 UNK        -0.0855 
      7 S7         29.2438   -4.6993   -3.7707 S.3       12 UNK        -0.2931 
      8 C8         29.2981   -3.3560   -5.0067 C.3       12 UNK         0.0378 
      9 C9         30.1197   -2.1672   -4.5323 C.ar      12 UNK        -0.0802 
     10 C10        31.2035   -1.6957   -5.2795 C.ar      12 UNK        -0.0944 
     11 C11        31.9043   -0.5567   -4.8679 C.ar      12 UNK        -0.0787 
     12 C12        31.5119    0.1136   -3.7043 C.ar      12 UNK        -0.0862 
     13 C13        30.4292   -0.3503   -2.9520 C.ar      12 UNK        -0.0733 
     14 C14        29.7493   -1.4957   -3.3659 C.ar      12 UNK        -0.0832 
     15 C15        29.9776    0.3869   -1.7013 C.3       12 UNK         0.0240 
     16 S16        28.8284    1.7430   -2.0979 S.3       12 UNK        -0.2522 
     17 C17        27.3413    0.8593   -2.6930 C.3       12 UNK        -0.0967 
     18 CA         27.1898    0.8684   -4.2384 C.3       5 UNK         0.0660 
     19 N          26.3135   -0.2254   -4.6933 N.am      5 UNK        -0.4015 
     20 C          25.9298   -0.4764   -5.9553 C.2       4 UNK         0.4946 
     21 O          26.3351    0.1597   -6.9264 O.2       4 UNK        -0.5353 
     22 CA         24.8659   -1.5624   -6.1913 C.3       4 UNK         0.0277 
     23 CB         25.4954   -2.8338   -6.7721 C.3       4 UNK        -0.1981 
     24 N          24.0760   -1.8917   -5.0013 N.am      4 UNK        -0.4209 
     25 C          23.1869   -1.0598   -4.4374 C.2       3 UNK         0.4942 
     26 O          22.9462    0.0720   -4.8603 O.2       3 UNK        -0.5208 
     27 CA         22.4826   -1.5571   -3.1661 C.3       3 UNK         0.0250 
     28 CB         21.4132   -2.6120   -3.4953 C.3       3 UNK        -0.1990 
     29 N          23.4424   -2.0966   -2.2020 N.am      3 UNK        -0.4232 
     30 C          24.2713   -1.3416   -1.4666 C.2       2 UNK         0.4993 
     31 O          24.2534   -0.1111   -1.4637 O.2       2 UNK        -0.5286 
     32 CA         25.3110   -2.0724   -0.5976 C.3       2 UNK         0.0209 
     33 CB         24.7844   -2.2444    0.8363 C.3       2 UNK        -0.1931 
     34 N          25.7258   -3.3790   -1.1205 N.am      2 UNK        -0.4546 
     35 C          26.3479   -3.5786   -2.2919 C.2       1 UNK         0.5154 
     36 O          26.5906   -2.6710   -3.0887 O.2       1 UNK        -0.5181 
     37 C          26.7681    2.2697   -4.7498 C.2       5 UNK         0.5014 
     38 O          27.6303    3.1314   -4.9249 O.2       5 UNK        -0.5248 
     39 N          25.4679    2.4684   -5.0227 N.am      6 UNK        -0.4434 
     40 CA         24.9209    3.6725   -5.6559 C.3       6 UNK         0.0363 
     41 CB         23.3864    3.5886   -5.6561 C.3       6 UNK        -0.1936 
     42 C          25.4468    3.9181   -7.0857 C.2       6 UNK         0.5081 
     43 O          25.5711    5.0761   -7.4857 O.2       6 UNK        -0.5248 
     44 N          25.7523    2.8401   -7.8209 N.am      7 UNK        -0.4718 
     45 CA         26.3961    2.8771   -9.1371 C.3       7 UNK         0.0273 
     46 CB         25.7233    1.8432  -10.0549 C.3       7 UNK        -0.1935 
     47 C          27.9036    2.5898   -9.0348 C.2       7 UNK         0.5018 
     48 O          28.6707    3.1039   -9.8503 O.2       7 UNK        -0.5186 
     49 N          28.2940    1.7668   -8.0501 N.am      8 UNK        -0.4240 
     50 CA         29.6329    1.2634   -7.7304 C.3       8 UNK         0.0235 
     51 CB         30.6356    2.4005   -7.4493 C.3       8 UNK        -0.2000 
     52 C          30.1523    0.2682   -8.7770 C.2       8 UNK         0.4941 
     53 O          30.3763   -0.8940   -8.4375 O.2       8 UNK        -0.5273 
     54 N          30.3212    0.7339  -10.0232 N.am      9 UNK        -0.4262 
     55 CA         30.7617    0.0272  -11.2377 C.3       9 UNK         0.0264 
     56 CB         29.7391   -1.0507  -11.6473 C.3       9 UNK        -0.1955 
     57 C          32.1875   -0.5590  -11.1842 C.2       9 UNK         0.5031 
     58 O          32.9565   -0.3605  -12.1265 O.2       9 UNK        -0.5390 
     59 N          32.5070   -1.2701  -10.0999 N.am      10 UNK        -0.4204 
     60 CA         33.8121   -1.8434   -9.7819 C.3       10 UNK         0.0237 
     61 CB         33.5813   -3.1683   -9.0253 C.3       10 UNK        -0.1985 
     62 C          34.6667   -0.8377   -8.9829 C.2       10 UNK         0.4970 
     63 O          34.4501    0.3724   -9.0797 O.2       10 UNK        -0.4914 
     64 N          35.6213   -1.3611   -8.2021 N.am      11 UNK        -0.4285 
     65 CA         36.5383   -0.6176   -7.3171 C.3       11 UNK         0.1007 
     66 C          37.6236    0.2213   -8.0603 C.2       11 UNK         0.5703 
     67 N          37.8507    0.0158   -9.3525 N.am      11 UNK        -0.7361 
     68 O          38.2989    1.0489   -7.4521 O.2       11 UNK        -0.4986 
     69 C69        35.8106    0.2006   -6.2079 C.3       12 UNK        -0.0947 
     70 S70        34.6407   -0.7864   -5.2107 S.3       12 UNK        -0.2240 
     71 C71        33.0621   -0.0268   -5.6970 C.3       12 UNK         0.0194 
     72 H72        22.9907   -7.1036   -4.2206 H         1 UNK         0.0906 
     73 H73        23.4329   -7.4401   -2.5455 H         1 UNK         0.0906 
     74 H74        22.3033   -6.1348   -2.9150 H         1 UNK         0.0906 
     75 H75        25.4584   -6.6709   -2.0297 H         1 UNK         0.3140 
     76 H76        27.2644   -5.4262   -1.7985 H         1 UNK         0.1085 
     77 H77        27.0231   -4.8213   -4.7842 H         1 UNK         0.0836 
     78 H78        27.5581   -6.3328   -4.1439 H         1 UNK         0.0836 
     79 H79        28.2941   -2.9888   -5.2148 H         1 UNK         0.0731 
     80 H80        29.6835   -3.7521   -5.9475 H         1 UNK         0.0731 
     81 H81        31.4899   -2.1995   -6.1926 H         1 UNK         0.1312 
     82 H82        32.0413    1.0028   -3.3899 H         1 UNK         0.1406 
     83 H83        28.9138   -1.8600   -2.7878 H         1 UNK         0.1631 
     84 H84        30.8457    0.8009   -1.1862 H         1 UNK         0.0717 
     85 H85        29.5054   -0.2996   -0.9966 H         1 UNK         0.0717 
     86 H86        27.3823   -0.1636   -2.3210 H         1 UNK         0.0934 
     87 H87        26.4632    1.2998   -2.2166 H         1 UNK         0.0934 
     88 H88        28.1667    0.6578   -4.6778 H         1 UNK         0.0739 
     89 H89        26.0107   -0.8819   -3.9823 H         1 UNK         0.3093 
     90 H90        24.1773   -1.1661   -6.9407 H         1 UNK         0.0818 
     91 H91        26.0603   -2.6148   -7.6794 H         1 UNK         0.0819 
     92 H92        26.1787   -3.2903   -6.0630 H         1 UNK         0.0819 
     93 H93        24.7361   -3.5727   -7.0288 H         1 UNK         0.0819 
     94 H94        24.2136   -2.8185   -4.6024 H         1 UNK         0.3041 
     95 H95        21.9786   -0.7026   -2.7086 H         1 UNK         0.0784 
     96 H96        20.6732   -2.2097   -4.1885 H         1 UNK         0.0793 
     97 H97        21.8410   -3.5010   -3.9589 H         1 UNK         0.0793 
     98 H98        20.8783   -2.9264   -2.5990 H         1 UNK         0.0793 
     99 H99        23.5504   -3.1000   -2.1717 H         1 UNK         0.3024 
    100 H100       26.1984   -1.4370   -0.5598 H         1 UNK         0.1171 
    101 H101       25.5461   -2.6672    1.4918 H         1 UNK         0.0786 
    102 H102       24.4916   -1.2836    1.2626 H         1 UNK         0.0786 
    103 H103       23.9103   -2.8959    0.8708 H         1 UNK         0.0786 
    104 H104       25.5271   -4.1821   -0.5408 H         1 UNK         0.2977 
    105 H105       24.8170    1.7121   -4.8527 H         1 UNK         0.3127 
    106 H106       25.2174    4.5293   -5.0471 H         1 UNK         0.0770 
    107 H107       23.0297    2.7300   -6.2269 H         1 UNK         0.0814 
    108 H108       22.9461    4.4824   -6.1004 H         1 UNK         0.0814 
    109 H109       22.9927    3.5035   -4.6431 H         1 UNK         0.0814 
    110 H110       25.6565    1.9215   -7.3987 H         1 UNK         0.2983 
    111 H111       26.2769    3.8641   -9.5896 H         1 UNK         0.0947 
    112 H112       26.1768    1.8486  -11.0471 H         1 UNK         0.0806 
    113 H113       24.6625    2.0591  -10.1823 H         1 UNK         0.0806 
    114 H114       25.8140    0.8303   -9.6598 H         1 UNK         0.0806 
    115 H115       27.5495    1.3119   -7.5241 H         1 UNK         0.3000 
    116 H116       29.5193    0.7011   -6.8016 H         1 UNK         0.0850 
    117 H117       30.3014    3.0172   -6.6146 H         1 UNK         0.0810 
    118 H118       31.6138    2.0002   -7.1862 H         1 UNK         0.0810 
    119 H119       30.7813    3.0533   -8.3096 H         1 UNK         0.0810 
    120 H120       30.0593    1.7061  -10.1632 H         1 UNK         0.3040 
    121 H121       30.7684    0.7834  -12.0245 H         1 UNK         0.0766 
    122 H122       28.7467   -0.6217  -11.7858 H         1 UNK         0.0812 
    123 H123       29.6596   -1.8430  -10.9022 H         1 UNK         0.0812 
    124 H124       30.0241   -1.5197  -12.5901 H         1 UNK         0.0812 
    125 H125       31.7947   -1.3154   -9.3705 H         1 UNK         0.3205 
    126 H126       34.3444   -2.0633  -10.7094 H         1 UNK         0.0754 
    127 H127       34.5074   -3.7310   -8.9036 H         1 UNK         0.0769 
    128 H128       32.8927   -3.8163   -9.5685 H         1 UNK         0.0769 
    129 H129       33.1606   -2.9985   -8.0328 H         1 UNK         0.0769 
    130 H130       35.7340   -2.3640   -8.1912 H         1 UNK         0.2981 
    131 H131       37.1113   -1.3909   -6.8046 H         1 UNK         0.0541 
    132 H132       37.3155   -0.6665   -9.8643 H         1 UNK         0.3459 
    133 H133       38.5626    0.5550   -9.8198 H         1 UNK         0.3459 
    134 H134       36.5397    0.6167   -5.5106 H         1 UNK         0.0612 
    135 H135       35.2965    1.0594   -6.6419 H         1 UNK         0.0612 
    136 H136       32.8761   -0.2126   -6.7551 H         1 UNK         0.0624 
    137 H137       33.1355    1.0551   -5.5788 H         1 UNK         0.0624 
@<TRIPOS>BOND
     1    1    2 1    
     2    1   72 1    
     3    1   73 1    
     4    1   74 1    
     5    2    3 2    
     6    2    4 am   BACKBONE|DICT|INTERRES
     7    4    5 1    
     8    4   75 1    
     9    5    6 1    
    10    5   35 1    
    11    5   76 1    
    12    6    7 1    
    13    6   77 1    
    14    6   78 1    
    15    7    8 1    
    16    8    9 1    
    17    8   79 1    
    18    8   80 1    
    19    9   10 ar   
    20    9   14 ar   
    21   10   11 ar   
    22   10   81 1    
    23   11   12 ar   
    24   11   71 1    
    25   12   13 ar   
    26   12   82 1    
    27   13   14 ar   
    28   13   15 1    
    29   14   83 1    
    30   15   16 1    
    31   15   84 1    
    32   15   85 1    
    33   16   17 1    
    34   17   18 1    
    35   17   86 1    
    36   17   87 1    
    37   18   19 1    
    38   18   37 1    
    39   18   88 1    
    40   19   20 am   BACKBONE|DICT|INTERRES
    41   19   89 1    
    42   20   21 2    
    43   20   22 1    
    44   22   23 1    
    45   22   24 1    
    46   22   90 1    
    47   23   91 1    
    48   23   92 1    
    49   23   93 1    
    50   24   25 am   BACKBONE|DICT|INTERRES
    51   24   94 1    
    52   25   26 2    
    53   25   27 1    
    54   27   28 1    
    55   27   29 1    
    56   27   95 1    
    57   28   96 1    
    58   28   97 1    
    59   28   98 1    
    60   29   30 am   BACKBONE|DICT|INTERRES
    61   29   99 1    
    62   30   31 2    
    63   30   32 1    
    64   32   33 1    
    65   32   34 1    
    66   32  100 1    
    67   33  101 1    
    68   33  102 1    
    69   33  103 1    
    70   34   35 am   BACKBONE|DICT|INTERRES
    71   34  104 1    
    72   35   36 2    
    73   37   38 2    
    74   37   39 am   BACKBONE|DICT|INTERRES
    75   39   40 1    
    76   39  105 1    
    77   40   41 1    
    78   40   42 1    
    79   40  106 1    
    80   41  107 1    
    81   41  108 1    
    82   41  109 1    
    83   42   43 2    
    84   42   44 am   BACKBONE|DICT|INTERRES
    85   44   45 1    
    86   44  110 1    
    87   45   46 1    
    88   45   47 1    
    89   45  111 1    
    90   46  112 1    
    91   46  113 1    
    92   46  114 1    
    93   47   48 2    
    94   47   49 am   BACKBONE|DICT|INTERRES
    95   49   50 1    
    96   49  115 1    
    97   50   51 1    
    98   50   52 1    
    99   50  116 1    
   100   51  117 1    
   101   51  118 1    
   102   51  119 1    
   103   52   53 2    
   104   52   54 am   BACKBONE|DICT|INTERRES
   105   54   55 1    
   106   54  120 1    
   107   55   56 1    
   108   55   57 1    
   109   55  121 1    
   110   56  122 1    
   111   56  123 1    
   112   56  124 1    
   113   57   58 2    
   114   57   59 am   BACKBONE|DICT|INTERRES
   115   59   60 1    
   116   59  125 1    
   117   60   61 1    
   118   60   62 1    
   119   60  126 1    
   120   61  127 1    
   121   61  128 1    
   122   61  129 1    
   123   62   63 2    
   124   62   64 am   BACKBONE|DICT|INTERRES
   125   64   65 1    
   126   64  130 1    
   127   65   66 1    
   128   65   69 1    
   129   65  131 1    
   130   66   67 am   BACKBONE|DICT|INTERRES
   131   66   68 2    
   132   67  132 1    
   133   67  133 1    
   134   69   70 1    
   135   69  134 1    
   136   69  135 1    
   137   70   71 1    
   138   71  136 1    
   139   71  137 1    
@<TRIPOS>SUBSTRUCTURE
     1 UNK         1 GROUP             0       ****    0 ROOT    
