@<TRIPOS>MOLECULE
3R137
137   139    1
SMALL
USER_CHARGES


@<TRIPOS>ATOM
      1 CA         28.1436   -6.2330   -5.9124 C.3       0 UNK        -0.2020 
      2 C          27.7006   -5.6399   -4.5833 C.2       0 UNK         0.4855 
      3 O          26.6146   -5.9607   -4.0994 O.2       0 UNK        -0.5197 
      4 N          28.5326   -4.7745   -3.9917 N.am      1 UNK        -0.4892 
      5 CA         28.2280   -4.0118   -2.7771 C.3       1 UNK         0.0835 
      6 C6         29.4576   -3.2094   -2.2965 C.3       12 UNK        -0.0855 
      7 S7         30.7994   -4.2156   -1.5994 S.3       12 UNK        -0.2931 
      8 C8         31.6971   -2.9103   -0.6928 C.3       12 UNK         0.0378 
      9 C9         32.3210   -1.9040   -1.6508 C.ar      12 UNK        -0.0802 
     10 C10        33.5826   -2.1631   -2.1873 C.ar      12 UNK        -0.0944 
     11 C11        34.1564   -1.2817   -3.1037 C.ar      12 UNK        -0.0787 
     12 C12        33.4551   -0.1328   -3.4842 C.ar      12 UNK        -0.0862 
     13 C13        32.1859    0.1459   -2.9626 C.ar      12 UNK        -0.0733 
     14 C14        31.6362   -0.7387   -2.0230 C.ar      12 UNK        -0.0832 
     15 C15        31.4725    1.4087   -3.4631 C.3       12 UNK         0.0240 
     16 S16        29.8069    1.7718   -2.7940 S.3       12 UNK        -0.2522 
     17 C17        28.7320    0.5615   -3.6395 C.3       12 UNK        -0.0967 
     18 CA         28.2971    0.9299   -5.0815 C.3       5 UNK         0.0660 
     19 N          27.5862   -0.1876   -5.6981 N.am      5 UNK        -0.4015 
     20 C          27.2751   -0.3015   -6.9928 C.2       4 UNK         0.4946 
     21 O          27.5773    0.5323   -7.8468 O.2       4 UNK        -0.5353 
     22 CA         26.4685   -1.5447   -7.3950 C.3       4 UNK         0.0277 
     23 CB         27.3904   -2.7649   -7.5586 C.3       4 UNK        -0.1981 
     24 N          25.4121   -1.8533   -6.4289 N.am      4 UNK        -0.4209 
     25 C          24.3024   -1.1225   -6.2578 C.2       3 UNK         0.4942 
     26 O          24.0411   -0.1125   -6.9088 O.2       3 UNK        -0.5208 
     27 CA         23.3318   -1.5786   -5.1553 C.3       3 UNK         0.0250 
     28 CB         22.4767   -2.7615   -5.6375 C.3       3 UNK        -0.1990 
     29 N          24.0012   -1.9322   -3.9007 N.am      3 UNK        -0.4232 
     30 C          24.6898   -1.0659   -3.1455 C.2       2 UNK         0.4993 
     31 O          24.8607    0.1178   -3.4354 O.2       2 UNK        -0.5286 
     32 CA         25.3427   -1.6213   -1.8694 C.3       2 UNK         0.0209 
     33 CB         24.2767   -1.9469   -0.8094 C.3       2 UNK        -0.1931 
     34 N          26.2395   -2.7762   -2.0375 N.am      2 UNK        -0.4546 
     35 C          27.1053   -2.9936   -3.0392 C.2       1 UNK         0.5154 
     36 O          27.1232   -2.3628   -4.0954 O.2       1 UNK        -0.5181 
     37 C          27.4884    2.2403   -5.2053 C.2       5 UNK         0.5014 
     38 O          28.0557    3.2564   -5.6103 O.2       5 UNK        -0.5248 
     39 N          26.1717    2.1845   -4.9455 N.am      6 UNK        -0.4434 
     40 CA         25.2388    3.2980   -5.1522 C.3       6 UNK         0.0363 
     41 CB         23.8797    2.9619   -4.5187 C.3       6 UNK        -0.1936 
     42 C          25.0563    3.6814   -6.6325 C.2       6 UNK         0.5081 
     43 O          24.9631    4.8703   -6.9378 O.2       6 UNK        -0.5248 
     44 N          25.0195    2.6831   -7.5271 N.am      7 UNK        -0.4718 
     45 CA         24.8803    2.8654   -8.9782 C.3       7 UNK         0.0273 
     46 CB         24.3855    1.5504   -9.6039 C.3       7 UNK        -0.1935 
     47 C          26.1655    3.3375   -9.6856 C.2       7 UNK         0.5018 
     48 O          26.1102    3.6220  -10.8826 O.2       7 UNK        -0.5186 
     49 N          27.2907    3.3862   -8.9573 N.am      8 UNK        -0.4240 
     50 CA         28.6471    3.7003   -9.4242 C.3       8 UNK         0.0235 
     51 CB         28.7342    5.1221  -10.0201 C.3       8 UNK        -0.2000 
     52 C          29.2494    2.6196  -10.3468 C.2       8 UNK         0.4941 
     53 O          30.1824    2.9087  -11.0978 O.2       8 UNK        -0.5273 
     54 N          28.7529    1.3797  -10.2293 N.am      9 UNK        -0.4262 
     55 CA         29.3856    0.1659  -10.7557 C.3       9 UNK         0.0264 
     56 CB         28.3079   -0.9014  -11.0040 C.3       9 UNK        -0.1955 
     57 C          30.4896   -0.3555   -9.8107 C.2       9 UNK         0.5031 
     58 O          31.3102   -1.1688  -10.2370 O.2       9 UNK        -0.5390 
     59 N          30.5088    0.1587   -8.5722 N.am      10 UNK        -0.4204 
     60 CA         31.5247    0.0001   -7.5332 C.3       10 UNK         0.0237 
     61 CB         32.9324    0.4091   -8.0323 C.3       10 UNK        -0.1985 
     62 C          31.4467   -1.3611   -6.8213 C.2       10 UNK         0.4970 
     63 O          30.3614   -1.7566   -6.3971 O.2       10 UNK        -0.4914 
     64 N          32.6085   -1.9849   -6.6104 N.am      11 UNK        -0.4285 
     65 CA         32.8420   -3.1046   -5.6917 C.3       11 UNK         0.1007 
     66 C          32.0365   -4.3898   -6.0206 C.2       11 UNK         0.5703 
     67 N          31.6439   -5.1501   -5.0057 N.am      11 UNK        -0.7361 
     68 O          31.8162   -4.7336   -7.1800 O.2       11 UNK        -0.4986 
     69 C69        34.3609   -3.4196   -5.5565 C.3       12 UNK        -0.0947 
     70 S70        35.4389   -1.9404   -5.4798 S.3       12 UNK        -0.2240 
     71 C71        35.5239   -1.5899   -3.6961 C.3       12 UNK         0.0194 
     72 H72        28.4200   -7.2792   -5.7848 H         1 UNK         0.0906 
     73 H73        27.3302   -6.1807   -6.6356 H         1 UNK         0.0906 
     74 H74        28.9963   -5.6993   -6.3323 H         1 UNK         0.0906 
     75 H75        29.4077   -4.5404   -4.4395 H         1 UNK         0.3140 
     76 H76        27.9101   -4.7069   -1.9971 H         1 UNK         0.1085 
     77 H77        29.1650   -2.4919   -1.5262 H         1 UNK         0.0836 
     78 H78        29.8679   -2.6241   -3.1224 H         1 UNK         0.0836 
     79 H79        32.4743   -3.3742   -0.0834 H         1 UNK         0.0731 
     80 H80        31.0248   -2.4100    0.0059 H         1 UNK         0.0731 
     81 H81        34.1093   -3.0643   -1.9037 H         1 UNK         0.1312 
     82 H82        33.8978    0.5399   -4.2065 H         1 UNK         0.1406 
     83 H83        30.6645   -0.5425   -1.5944 H         1 UNK         0.1631 
     84 H84        31.4064    1.3728   -4.5496 H         1 UNK         0.0717 
     85 H85        32.1068    2.2649   -3.2293 H         1 UNK         0.0717 
     86 H86        29.2571   -0.3937   -3.6609 H         1 UNK         0.0934 
     87 H87        27.8516    0.4005   -3.0146 H         1 UNK         0.0934 
     88 H88        29.2061    1.0715   -5.6666 H         1 UNK         0.0739 
     89 H89        27.3351   -0.9622   -5.0826 H         1 UNK         0.3093 
     90 H90        25.9984   -1.3384   -8.3584 H         1 UNK         0.0818 
     91 H91        28.2073   -2.5542   -8.2498 H         1 UNK         0.0819 
     92 H92        26.8466   -3.6251   -7.9486 H         1 UNK         0.0819 
     93 H93        27.8466   -3.0566   -6.6120 H         1 UNK         0.0819 
     94 H94        25.6006   -2.6013   -5.7749 H         1 UNK         0.3041 
     95 H95        22.6624   -0.7412   -4.9458 H         1 UNK         0.0784 
     96 H96        21.9585   -2.5147   -6.5654 H         1 UNK         0.0793 
     97 H97        23.0813   -3.6492   -5.8279 H         1 UNK         0.0793 
     98 H98        21.7146   -3.0250   -4.9038 H         1 UNK         0.0793 
     99 H99        23.9424   -2.8939   -3.5984 H         1 UNK         0.3024 
    100 H100       25.9616   -0.8140   -1.4721 H         1 UNK         0.1171 
    101 H101       24.7308   -2.1578    0.1590 H         1 UNK         0.0786 
    102 H102       23.5953   -1.1067   -0.6665 H         1 UNK         0.0786 
    103 H103       23.6745   -2.8113   -1.0916 H         1 UNK         0.0786 
    104 H104       26.3151   -3.3736   -1.2265 H         1 UNK         0.2977 
    105 H105       25.7706    1.3244   -4.5757 H         1 UNK         0.3127 
    106 H106       25.6455    4.1699   -4.6355 H         1 UNK         0.0770 
    107 H107       23.4363    2.0716   -4.9671 H         1 UNK         0.0814 
    108 H108       23.1723    3.7818   -4.6496 H         1 UNK         0.0814 
    109 H109       23.9750    2.7842   -3.4474 H         1 UNK         0.0814 
    110 H110       25.0391    1.7245   -7.1939 H         1 UNK         0.2983 
    111 H111       24.1220    3.6308   -9.1563 H         1 UNK         0.0947 
    112 H112       24.2410    1.6534  -10.6802 H         1 UNK         0.0806 
    113 H113       23.4283    1.2459   -9.1806 H         1 UNK         0.0806 
    114 H114       25.0967    0.7390   -9.4462 H         1 UNK         0.0806 
    115 H115       27.2191    3.1015   -7.9882 H         1 UNK         0.3000 
    116 H116       29.2669    3.6921   -8.5262 H         1 UNK         0.0850 
    117 H117       29.7722    5.4107  -10.1898 H         1 UNK         0.0810 
    118 H118       28.2999    5.8617   -9.3475 H         1 UNK         0.0810 
    119 H119       28.2200    5.1948  -10.9786 H         1 UNK         0.0810 
    120 H120       28.0233    1.2279   -9.5360 H         1 UNK         0.3040 
    121 H121       29.8597    0.3963  -11.7121 H         1 UNK         0.0766 
    122 H122       27.5899   -0.5679  -11.7533 H         1 UNK         0.0812 
    123 H123       27.7545   -1.1368  -10.0969 H         1 UNK         0.0812 
    124 H124       28.7509   -1.8289  -11.3691 H         1 UNK         0.0812 
    125 H125       29.6972    0.7004   -8.3021 H         1 UNK         0.3205 
    126 H126       31.2543    0.7298   -6.7717 H         1 UNK         0.0754 
    127 H127       33.6423    0.4774   -7.2066 H         1 UNK         0.0769 
    128 H128       32.9081    1.3904   -8.5066 H         1 UNK         0.0769 
    129 H129       33.3355   -0.2967   -8.7595 H         1 UNK         0.0769 
    130 H130       33.4446   -1.5857   -7.0090 H         1 UNK         0.2981 
    131 H131       32.4827   -2.7580   -4.7224 H         1 UNK         0.0541 
    132 H132       31.8604   -4.9009   -4.0519 H         1 UNK         0.3459 
    133 H133       31.1949   -6.0294   -5.2042 H         1 UNK         0.3459 
    134 H134       34.5428   -4.0390   -4.6766 H         1 UNK         0.0612 
    135 H135       34.6996   -4.0063   -6.4125 H         1 UNK         0.0612 
    136 H136       35.9904   -2.4365   -3.1900 H         1 UNK         0.0624 
    137 H137       36.1826   -0.7353   -3.5365 H         1 UNK         0.0624 
@<TRIPOS>BOND
     1    1    2 1    
     2    1   72 1    
     3    1   73 1    
     4    1   74 1    
     5    2    3 2    
     6    2    4 am   BACKBONE|DICT|INTERRES
     7    4    5 1    
     8    4   75 1    
     9    5    6 1    
    10    5   35 1    
    11    5   76 1    
    12    6    7 1    
    13    6   77 1    
    14    6   78 1    
    15    7    8 1    
    16    8    9 1    
    17    8   79 1    
    18    8   80 1    
    19    9   10 ar   
    20    9   14 ar   
    21   10   11 ar   
    22   10   81 1    
    23   11   12 ar   
    24   11   71 1    
    25   12   13 ar   
    26   12   82 1    
    27   13   14 ar   
    28   13   15 1    
    29   14   83 1    
    30   15   16 1    
    31   15   84 1    
    32   15   85 1    
    33   16   17 1    
    34   17   18 1    
    35   17   86 1    
    36   17   87 1    
    37   18   19 1    
    38   18   37 1    
    39   18   88 1    
    40   19   20 am   BACKBONE|DICT|INTERRES
    41   19   89 1    
    42   20   21 2    
    43   20   22 1    
    44   22   23 1    
    45   22   24 1    
    46   22   90 1    
    47   23   91 1    
    48   23   92 1    
    49   23   93 1    
    50   24   25 am   BACKBONE|DICT|INTERRES
    51   24   94 1    
    52   25   26 2    
    53   25   27 1    
    54   27   28 1    
    55   27   29 1    
    56   27   95 1    
    57   28   96 1    
    58   28   97 1    
    59   28   98 1    
    60   29   30 am   BACKBONE|DICT|INTERRES
    61   29   99 1    
    62   30   31 2    
    63   30   32 1    
    64   32   33 1    
    65   32   34 1    
    66   32  100 1    
    67   33  101 1    
    68   33  102 1    
    69   33  103 1    
    70   34   35 am   BACKBONE|DICT|INTERRES
    71   34  104 1    
    72   35   36 2    
    73   37   38 2    
    74   37   39 am   BACKBONE|DICT|INTERRES
    75   39   40 1    
    76   39  105 1    
    77   40   41 1    
    78   40   42 1    
    79   40  106 1    
    80   41  107 1    
    81   41  108 1    
    82   41  109 1    
    83   42   43 2    
    84   42   44 am   BACKBONE|DICT|INTERRES
    85   44   45 1    
    86   44  110 1    
    87   45   46 1    
    88   45   47 1    
    89   45  111 1    
    90   46  112 1    
    91   46  113 1    
    92   46  114 1    
    93   47   48 2    
    94   47   49 am   BACKBONE|DICT|INTERRES
    95   49   50 1    
    96   49  115 1    
    97   50   51 1    
    98   50   52 1    
    99   50  116 1    
   100   51  117 1    
   101   51  118 1    
   102   51  119 1    
   103   52   53 2    
   104   52   54 am   BACKBONE|DICT|INTERRES
   105   54   55 1    
   106   54  120 1    
   107   55   56 1    
   108   55   57 1    
   109   55  121 1    
   110   56  122 1    
   111   56  123 1    
   112   56  124 1    
   113   57   58 2    
   114   57   59 am   BACKBONE|DICT|INTERRES
   115   59   60 1    
   116   59  125 1    
   117   60   61 1    
   118   60   62 1    
   119   60  126 1    
   120   61  127 1    
   121   61  128 1    
   122   61  129 1    
   123   62   63 2    
   124   62   64 am   BACKBONE|DICT|INTERRES
   125   64   65 1    
   126   64  130 1    
   127   65   66 1    
   128   65   69 1    
   129   65  131 1    
   130   66   67 am   BACKBONE|DICT|INTERRES
   131   66   68 2    
   132   67  132 1    
   133   67  133 1    
   134   69   70 1    
   135   69  134 1    
   136   69  135 1    
   137   70   71 1    
   138   71  136 1    
   139   71  137 1    
@<TRIPOS>SUBSTRUCTURE
     1 UNK         1 GROUP             0       ****    0 ROOT    
