@<TRIPOS>MOLECULE
3R137
137   139    1
SMALL
USER_CHARGES


@<TRIPOS>ATOM
      1 CA         25.5135   -6.9623    0.6424 C.3       0 UNK        -0.2020 
      2 C          25.6747   -5.5106    1.0671 C.2       0 UNK         0.4855 
      3 O          24.8020   -4.9699    1.7465 O.2       0 UNK        -0.5197 
      4 N          26.7843   -4.8738    0.6709 N.am      1 UNK        -0.4892 
      5 CA         27.1058   -3.4700    0.9645 C.3       1 UNK         0.0835 
      6 C6         28.6277   -3.1876    0.8637 C.3       12 UNK        -0.0855 
      7 S7         29.4232   -3.8328   -0.6493 S.3       12 UNK        -0.2931 
      8 C8         29.5138   -2.3208   -1.6529 C.3       12 UNK         0.0378 
      9 C9         30.1537   -2.5747   -3.0090 C.ar      12 UNK        -0.0802 
     10 C10        31.3167   -1.8927   -3.3780 C.ar      12 UNK        -0.0944 
     11 C11        31.8637   -2.0683   -4.6509 C.ar      12 UNK        -0.0787 
     12 C12        31.2277   -2.9185   -5.5591 C.ar      12 UNK        -0.0862 
     13 C13        30.0578   -3.6022   -5.2133 C.ar      12 UNK        -0.0733 
     14 C14        29.5522   -3.4533   -3.9161 C.ar      12 UNK        -0.0832 
     15 C15        29.3959   -4.4739   -6.2855 C.3       12 UNK         0.0240 
     16 S16        27.6651   -5.0150   -6.0122 S.3       12 UNK        -0.2522 
     17 C17        26.6942   -3.5253   -5.5846 C.3       12 UNK        -0.0967 
     18 CA         26.4818   -2.4626   -6.6910 C.3       5 UNK         0.0660 
     19 N          25.3046   -1.6441   -6.3877 N.am      5 UNK        -0.4015 
     20 C          24.7612   -0.7176   -7.1892 C.2       4 UNK         0.4946 
     21 O          25.1372   -0.4915   -8.3384 O.2       4 UNK        -0.5353 
     22 CA         23.6319    0.1325   -6.5813 C.3       4 UNK         0.0277 
     23 CB         22.2768   -0.5754   -6.7392 C.3       4 UNK        -0.1981 
     24 N          23.8584    0.4564   -5.1680 N.am      4 UNK        -0.4209 
     25 C          24.8659    1.2200   -4.7178 C.2       3 UNK         0.4942 
     26 O          25.6888    1.7628   -5.4516 O.2       3 UNK        -0.5208 
     27 CA         25.0068    1.3781   -3.1949 C.3       3 UNK         0.0250 
     28 CB         24.1976    2.5880   -2.7018 C.3       3 UNK        -0.1990 
     29 N          24.6102    0.1815   -2.4469 N.am      3 UNK        -0.4232 
     30 C          25.2511   -0.9941   -2.5001 C.2       2 UNK         0.4993 
     31 O          26.2417   -1.2043   -3.2043 O.2       2 UNK        -0.5286 
     32 CA         24.6270   -2.1436   -1.6927 C.3       2 UNK         0.0209 
     33 CB         23.8607   -3.0994   -2.6212 C.3       2 UNK        -0.1931 
     34 N          25.6107   -2.9094   -0.9250 N.am      2 UNK        -0.4546 
     35 C          26.2547   -2.4577    0.1612 C.2       1 UNK         0.5154 
     36 O          26.1590   -1.2995    0.5711 O.2       1 UNK        -0.5181 
     37 C          27.7166   -1.5603   -6.8698 C.2       5 UNK         0.5014 
     38 O          28.3890   -1.6448   -7.8986 O.2       5 UNK        -0.5248 
     39 N          27.9562   -0.6790   -5.8863 N.am      6 UNK        -0.4434 
     40 CA         29.0539    0.2882   -5.8967 C.3       6 UNK         0.0363 
     41 CB         29.1081    1.0300   -4.5528 C.3       6 UNK        -0.1936 
     42 C          28.9813    1.2740   -7.0747 C.2       6 UNK         0.5081 
     43 O          30.0031    1.5306   -7.7105 O.2       6 UNK        -0.5248 
     44 N          27.7741    1.7724   -7.3756 N.am      7 UNK        -0.4718 
     45 CA         27.4891    2.6379   -8.5218 C.3       7 UNK         0.0273 
     46 CB         26.0529    3.1750   -8.4224 C.3       7 UNK        -0.1935 
     47 C          27.7159    1.9425   -9.8741 C.2       7 UNK         0.5018 
     48 O          28.2776    2.5646  -10.7758 O.2       7 UNK        -0.5186 
     49 N          27.3025    0.6709   -9.9886 N.am      8 UNK        -0.4240 
     50 CA         27.5269   -0.1664  -11.1709 C.3       8 UNK         0.0235 
     51 CB         26.6917   -1.4529  -11.0704 C.3       8 UNK        -0.2000 
     52 C          29.0128   -0.4954  -11.3900 C.2       8 UNK         0.4941 
     53 O          29.4772   -0.4523  -12.5300 O.2       8 UNK        -0.5273 
     54 N          29.7333   -0.7966  -10.3003 N.am      9 UNK        -0.4262 
     55 CA         31.1814   -1.0217  -10.2998 C.3       9 UNK         0.0264 
     56 CB         31.5904   -1.6607   -8.9647 C.3       9 UNK        -0.1955 
     57 C          31.9980    0.2588  -10.5511 C.2       9 UNK         0.5031 
     58 O          33.0986    0.1684  -11.0969 O.2       9 UNK        -0.5390 
     59 N          31.4514    1.4111  -10.1361 N.am      10 UNK        -0.4204 
     60 CA         32.0379    2.7553  -10.1693 C.3       10 UNK         0.0237 
     61 CB         32.2879    3.2238  -11.6188 C.3       10 UNK        -0.1985 
     62 C          33.2761    2.8864   -9.2601 C.2       10 UNK         0.4970 
     63 O          34.1990    3.6381   -9.5814 O.2       10 UNK        -0.4914 
     64 N          33.2732    2.1502   -8.1423 N.am      11 UNK        -0.4285 
     65 CA         34.3128    2.1836   -7.1063 C.3       11 UNK         0.1007 
     66 C          34.2209    3.4387   -6.1926 C.2       11 UNK         0.5703 
     67 N          35.2841    3.7483   -5.4621 N.am      11 UNK        -0.7361 
     68 O          33.2031    4.1267   -6.1259 O.2       11 UNK        -0.4986 
     69 C69        34.3590    0.8543   -6.3048 C.3       12 UNK        -0.0947 
     70 S70        32.7637    0.3744   -5.5640 S.3       12 UNK        -0.2240 
     71 C71        33.1311   -1.3303   -5.0538 C.3       12 UNK         0.0194 
     72 H72        26.3587   -7.3105    0.0489 H         1 UNK         0.0906 
     73 H73        25.4294   -7.6027    1.5201 H         1 UNK         0.0906 
     74 H74        24.6089   -7.0807    0.0464 H         1 UNK         0.0906 
     75 H75        27.4778   -5.3605    0.1181 H         1 UNK         0.3140 
     76 H76        26.8298   -3.2955    2.0074 H         1 UNK         0.1085 
     77 H77        28.8404   -2.1226    0.9783 H         1 UNK         0.0836 
     78 H78        29.1268   -3.6662    1.7078 H         1 UNK         0.0836 
     79 H79        30.0671   -1.5585   -1.1021 H         1 UNK         0.0731 
     80 H80        28.5094   -1.9246   -1.8076 H         1 UNK         0.0731 
     81 H81        31.7905   -1.2123   -2.6837 H         1 UNK         0.1312 
     82 H82        31.6447   -3.0437   -6.5475 H         1 UNK         0.1406 
     83 H83        28.6775   -4.0027   -3.6015 H         1 UNK         0.1631 
     84 H84        30.0039   -5.3712   -6.4061 H         1 UNK         0.0717 
     85 H85        29.4378   -3.9606   -7.2463 H         1 UNK         0.0717 
     86 H86        25.7186   -3.9253   -5.3063 H         1 UNK         0.0934 
     87 H87        27.0662   -3.0698   -4.6714 H         1 UNK         0.0934 
     88 H88        26.2924   -2.9719   -7.6383 H         1 UNK         0.0739 
     89 H89        24.9465   -1.7172   -5.4476 H         1 UNK         0.3093 
     90 H90        23.5925    1.0720   -7.1366 H         1 UNK         0.0818 
     91 H91        21.4574    0.0547   -6.3928 H         1 UNK         0.0819 
     92 H92        22.0808   -0.8102   -7.7865 H         1 UNK         0.0819 
     93 H93        22.2391   -1.5128   -6.1829 H         1 UNK         0.0819 
     94 H94        23.2119    0.0686   -4.4966 H         1 UNK         0.3041 
     95 H95        26.0617    1.5656   -2.9833 H         1 UNK         0.0784 
     96 H96        24.4934    3.4954   -3.2306 H         1 UNK         0.0793 
     97 H97        23.1269    2.4530   -2.8604 H         1 UNK         0.0793 
     98 H98        24.3606    2.7680   -1.6390 H         1 UNK         0.0793 
     99 H99        23.8011    0.2724   -1.8489 H         1 UNK         0.3024 
    100 H100       23.9148   -1.7207   -0.9802 H         1 UNK         0.1171 
    101 H101       23.3204   -3.8549   -2.0500 H         1 UNK         0.0786 
    102 H102       23.1241   -2.5636   -3.2214 H         1 UNK         0.0786 
    103 H103       24.5301   -3.6178   -3.3068 H         1 UNK         0.0786 
    104 H104       25.7672   -3.8667   -1.2026 H         1 UNK         0.2977 
    105 H105       27.3583   -0.6834   -5.0680 H         1 UNK         0.3127 
    106 H106       29.9749   -0.2840   -6.0082 H         1 UNK         0.0770 
    107 H107       28.2100    1.6229   -4.3800 H         1 UNK         0.0814 
    108 H108       29.9607    1.7097   -4.5215 H         1 UNK         0.0814 
    109 H109       29.2178    0.3341   -3.7210 H         1 UNK         0.0814 
    110 H110       26.9944    1.5670   -6.7536 H         1 UNK         0.2983 
    111 H111       28.1744    3.4868   -8.4705 H         1 UNK         0.0947 
    112 H112       25.8271    3.8445   -9.2534 H         1 UNK         0.0806 
    113 H113       25.9036    3.7387   -7.5013 H         1 UNK         0.0806 
    114 H114       25.3193    2.3686   -8.4428 H         1 UNK         0.0806 
    115 H115       26.7976    0.2451   -9.2164 H         1 UNK         0.3000 
    116 H116       27.1818    0.3923  -12.0435 H         1 UNK         0.0850 
    117 H117       26.8409   -2.0858  -11.9462 H         1 UNK         0.0810 
    118 H118       25.6266   -1.2286  -11.0099 H         1 UNK         0.0810 
    119 H119       26.9581   -2.0413  -10.1918 H         1 UNK         0.0810 
    120 H120       29.2514   -0.8919   -9.4076 H         1 UNK         0.3040 
    121 H121       31.4158   -1.7251  -11.1016 H         1 UNK         0.0766 
    122 H122       31.3378   -1.0205   -8.1182 H         1 UNK         0.0812 
    123 H123       32.6649   -1.8449   -8.9277 H         1 UNK         0.0812 
    124 H124       31.0891   -2.6179   -8.8227 H         1 UNK         0.0812 
    125 H125       30.5903    1.3445   -9.6008 H         1 UNK         0.3205 
    126 H126       31.2829    3.4152   -9.7393 H         1 UNK         0.0754 
    127 H127       32.5777    4.2749  -11.6453 H         1 UNK         0.0769 
    128 H128       31.3887    3.1209  -12.2266 H         1 UNK         0.0769 
    129 H129       33.0852    2.6552  -12.0983 H         1 UNK         0.0769 
    130 H130       32.4434    1.6192   -7.9137 H         1 UNK         0.2981 
    131 H131       35.2701    2.2658   -7.6250 H         1 UNK         0.0541 
    132 H132       36.1254    3.1944   -5.5024 H         1 UNK         0.3459 
    133 H133       35.2443    4.5547   -4.8586 H         1 UNK         0.3459 
    134 H134       35.1142    0.8955   -5.5181 H         1 UNK         0.0612 
    135 H135       34.6729    0.0521   -6.9744 H         1 UNK         0.0612 
    136 H136       33.6266   -1.8564   -5.8713 H         1 UNK         0.0624 
    137 H137       33.8362   -1.3142   -4.2215 H         1 UNK         0.0624 
@<TRIPOS>BOND
     1    1    2 1    
     2    1   72 1    
     3    1   73 1    
     4    1   74 1    
     5    2    3 2    
     6    2    4 am   BACKBONE|DICT|INTERRES
     7    4    5 1    
     8    4   75 1    
     9    5    6 1    
    10    5   35 1    
    11    5   76 1    
    12    6    7 1    
    13    6   77 1    
    14    6   78 1    
    15    7    8 1    
    16    8    9 1    
    17    8   79 1    
    18    8   80 1    
    19    9   10 ar   
    20    9   14 ar   
    21   10   11 ar   
    22   10   81 1    
    23   11   12 ar   
    24   11   71 1    
    25   12   13 ar   
    26   12   82 1    
    27   13   14 ar   
    28   13   15 1    
    29   14   83 1    
    30   15   16 1    
    31   15   84 1    
    32   15   85 1    
    33   16   17 1    
    34   17   18 1    
    35   17   86 1    
    36   17   87 1    
    37   18   19 1    
    38   18   37 1    
    39   18   88 1    
    40   19   20 am   BACKBONE|DICT|INTERRES
    41   19   89 1    
    42   20   21 2    
    43   20   22 1    
    44   22   23 1    
    45   22   24 1    
    46   22   90 1    
    47   23   91 1    
    48   23   92 1    
    49   23   93 1    
    50   24   25 am   BACKBONE|DICT|INTERRES
    51   24   94 1    
    52   25   26 2    
    53   25   27 1    
    54   27   28 1    
    55   27   29 1    
    56   27   95 1    
    57   28   96 1    
    58   28   97 1    
    59   28   98 1    
    60   29   30 am   BACKBONE|DICT|INTERRES
    61   29   99 1    
    62   30   31 2    
    63   30   32 1    
    64   32   33 1    
    65   32   34 1    
    66   32  100 1    
    67   33  101 1    
    68   33  102 1    
    69   33  103 1    
    70   34   35 am   BACKBONE|DICT|INTERRES
    71   34  104 1    
    72   35   36 2    
    73   37   38 2    
    74   37   39 am   BACKBONE|DICT|INTERRES
    75   39   40 1    
    76   39  105 1    
    77   40   41 1    
    78   40   42 1    
    79   40  106 1    
    80   41  107 1    
    81   41  108 1    
    82   41  109 1    
    83   42   43 2    
    84   42   44 am   BACKBONE|DICT|INTERRES
    85   44   45 1    
    86   44  110 1    
    87   45   46 1    
    88   45   47 1    
    89   45  111 1    
    90   46  112 1    
    91   46  113 1    
    92   46  114 1    
    93   47   48 2    
    94   47   49 am   BACKBONE|DICT|INTERRES
    95   49   50 1    
    96   49  115 1    
    97   50   51 1    
    98   50   52 1    
    99   50  116 1    
   100   51  117 1    
   101   51  118 1    
   102   51  119 1    
   103   52   53 2    
   104   52   54 am   BACKBONE|DICT|INTERRES
   105   54   55 1    
   106   54  120 1    
   107   55   56 1    
   108   55   57 1    
   109   55  121 1    
   110   56  122 1    
   111   56  123 1    
   112   56  124 1    
   113   57   58 2    
   114   57   59 am   BACKBONE|DICT|INTERRES
   115   59   60 1    
   116   59  125 1    
   117   60   61 1    
   118   60   62 1    
   119   60  126 1    
   120   61  127 1    
   121   61  128 1    
   122   61  129 1    
   123   62   63 2    
   124   62   64 am   BACKBONE|DICT|INTERRES
   125   64   65 1    
   126   64  130 1    
   127   65   66 1    
   128   65   69 1    
   129   65  131 1    
   130   66   67 am   BACKBONE|DICT|INTERRES
   131   66   68 2    
   132   67  132 1    
   133   67  133 1    
   134   69   70 1    
   135   69  134 1    
   136   69  135 1    
   137   70   71 1    
   138   71  136 1    
   139   71  137 1    
@<TRIPOS>SUBSTRUCTURE
     1 UNK         1 GROUP             0       ****    0 ROOT    
