@<TRIPOS>MOLECULE
3R137
137   139    1
SMALL
USER_CHARGES


@<TRIPOS>ATOM
      1 CA         26.7820    0.7946    3.6071 C.3       0 UNK        -0.2020 
      2 C          27.2270    0.4816    2.1862 C.2       0 UNK         0.4855 
      3 O          28.0014    1.2427    1.6058 O.2       0 UNK        -0.5197 
      4 N          26.7417   -0.6286    1.6225 N.am      1 UNK        -0.4892 
      5 CA         26.9996   -1.0768    0.2548 C.3       1 UNK         0.0835 
      6 C6         28.4299   -1.6571    0.0638 C.3       12 UNK        -0.0855 
      7 S7         28.9757   -1.5509   -1.6738 S.3       12 UNK        -0.2931 
      8 C8         30.2114   -2.8814   -1.7508 C.3       12 UNK         0.0378 
      9 C9         30.4610   -3.3090   -3.1890 C.ar      12 UNK        -0.0802 
     10 C10        31.6325   -2.9406   -3.8590 C.ar      12 UNK        -0.0944 
     11 C11        31.8710   -3.3890   -5.1627 C.ar      12 UNK        -0.0787 
     12 C12        30.9136   -4.1831   -5.8056 C.ar      12 UNK        -0.0862 
     13 C13        29.7364   -4.5524   -5.1469 C.ar      12 UNK        -0.0733 
     14 C14        29.5227   -4.1159   -3.8373 C.ar      12 UNK        -0.0832 
     15 C15        28.7289   -5.4796   -5.8173 C.3       12 UNK         0.0240 
     16 S16        27.7762   -4.6719   -7.1430 S.3       12 UNK        -0.2522 
     17 C17        26.7236   -3.4961   -6.2209 C.3       12 UNK        -0.0967 
     18 CA         26.5272   -2.1556   -6.9717 C.3       5 UNK         0.0660 
     19 N          25.4176   -1.3571   -6.4215 N.am      5 UNK        -0.4015 
     20 C          25.0089   -0.1756   -6.9202 C.2       4 UNK         0.4946 
     21 O          25.5865    0.4021   -7.8411 O.2       4 UNK        -0.5353 
     22 CA         23.7482    0.4960   -6.3451 C.3       4 UNK         0.0277 
     23 CB         22.7176    0.7488   -7.4603 C.3       4 UNK        -0.1981 
     24 N          23.0994   -0.2611   -5.2763 N.am      4 UNK        -0.4209 
     25 C          23.3767   -0.1435   -3.9727 C.2       3 UNK         0.4942 
     26 O          24.2521    0.5969   -3.5217 O.2       3 UNK        -0.5208 
     27 CA         22.5506   -1.0080   -2.9985 C.3       3 UNK         0.0250 
     28 CB         21.3493   -1.7349   -3.6476 C.3       3 UNK        -0.1990 
     29 N          23.3996   -1.9656   -2.2850 N.am      3 UNK        -0.4232 
     30 C          24.2208   -2.8729   -2.8319 C.2       2 UNK         0.4993 
     31 O          24.3603   -3.0330   -4.0472 O.2       2 UNK        -0.5286 
     32 CA         25.0691   -3.6859   -1.8415 C.3       2 UNK         0.0209 
     33 CB         25.7707   -4.8840   -2.5070 C.3       2 UNK        -0.1931 
     34 N          26.0707   -2.8108   -1.2293 N.am      2 UNK        -0.4546 
     35 C          25.8612   -2.0327   -0.1604 C.2       1 UNK         0.5154 
     36 O          24.8021   -2.0377    0.4757 O.2       1 UNK        -0.5181 
     37 C          27.8491   -1.3695   -7.0964 C.2       5 UNK         0.5014 
     38 O          28.4266   -1.3328   -8.1839 O.2       5 UNK        -0.5248 
     39 N          28.2716   -0.7099   -6.0081 N.am      6 UNK        -0.4434 
     40 CA         29.4887    0.1046   -5.9796 C.3       6 UNK         0.0363 
     41 CB         29.8055    0.5357   -4.5409 C.3       6 UNK        -0.1936 
     42 C          29.4381    1.3283   -6.9065 C.2       6 UNK         0.5081 
     43 O          30.4734    1.7022   -7.4535 O.2       6 UNK        -0.5248 
     44 N          28.2493    1.9193   -7.0852 N.am      7 UNK        -0.4718 
     45 CA         28.0253    3.0351   -8.0054 C.3       7 UNK         0.0273 
     46 CB         26.6947    3.7302   -7.6728 C.3       7 UNK        -0.1935 
     47 C          28.0608    2.5765   -9.4711 C.2       7 UNK         0.5018 
     48 O          28.7032    3.2307  -10.2922 O.2       7 UNK        -0.5186 
     49 N          27.3959    1.4497   -9.7628 N.am      8 UNK        -0.4240 
     50 CA         27.3380    0.8256  -11.0856 C.3       8 UNK         0.0235 
     51 CB         26.2954   -0.3044  -11.0731 C.3       8 UNK        -0.2000 
     52 C          28.7030    0.3043  -11.5627 C.2       8 UNK         0.4941 
     53 O          29.0702    0.5398  -12.7144 O.2       8 UNK        -0.5273 
     54 N          29.4330   -0.3804  -10.6720 N.am      9 UNK        -0.4262 
     55 CA         30.7649   -0.9288  -10.9413 C.3       9 UNK         0.0264 
     56 CB         31.0060   -2.1239  -10.0058 C.3       9 UNK        -0.1955 
     57 C          31.9005    0.1065  -10.8188 C.2       9 UNK         0.5031 
     58 O          33.0182   -0.1961  -11.2397 O.2       9 UNK        -0.5390 
     59 N          31.6069    1.2897  -10.2559 N.am      10 UNK        -0.4204 
     60 CA         32.5256    2.4005   -9.9690 C.3       10 UNK         0.0237 
     61 CB         33.0603    3.0298  -11.2734 C.3       10 UNK        -0.1985 
     62 C          33.6397    1.9978   -8.9813 C.2       10 UNK         0.4970 
     63 O          34.8199    2.2536   -9.2307 O.2       10 UNK        -0.4914 
     64 N          33.2318    1.3544   -7.8834 N.am      11 UNK        -0.4285 
     65 CA         34.1003    0.8841   -6.7972 C.3       11 UNK         0.1007 
     66 C          34.5629    2.0446   -5.8765 C.2       11 UNK         0.5703 
     67 N          35.7303    1.9157   -5.2603 N.am      11 UNK        -0.7361 
     68 O          33.8656    3.0399   -5.6861 O.2       11 UNK        -0.4986 
     69 C69        33.4188   -0.2439   -5.9784 C.3       12 UNK        -0.0947 
     70 S70        33.0431   -1.6911   -7.0226 S.3       12 UNK        -0.2240 
     71 C71        33.1890   -3.0780   -5.8582 C.3       12 UNK         0.0194 
     72 H72        26.1025    0.0375    3.9982 H         1 UNK         0.0906 
     73 H73        27.6469    0.8471    4.2680 H         1 UNK         0.0906 
     74 H74        26.2712    1.7567    3.6372 H         1 UNK         0.0906 
     75 H75        26.0462   -1.1866    2.1043 H         1 UNK         0.3140 
     76 H76        26.8923   -0.1985   -0.3865 H         1 UNK         0.1085 
     77 H77        29.1540   -1.0934    0.6539 H         1 UNK         0.0836 
     78 H78        28.4863   -2.6845    0.4286 H         1 UNK         0.0836 
     79 H79        29.8679   -3.7445   -1.1785 H         1 UNK         0.0731 
     80 H80        31.1347   -2.5435   -1.2776 H         1 UNK         0.0731 
     81 H81        32.3706   -2.3296   -3.3575 H         1 UNK         0.1312 
     82 H82        31.0956   -4.5345   -6.8122 H         1 UNK         0.1406 
     83 H83        28.6327   -4.4181   -3.3065 H         1 UNK         0.1631 
     84 H84        28.0353   -5.8967   -5.0853 H         1 UNK         0.0717 
     85 H85        29.2623   -6.3301   -6.2440 H         1 UNK         0.0717 
     86 H86        25.7596   -3.9846   -6.0724 H         1 UNK         0.0934 
     87 H87        27.1289   -3.3197   -5.2243 H         1 UNK         0.0934 
     88 H88        26.2207   -2.4004   -7.9912 H         1 UNK         0.0739 
     89 H89        24.9022   -1.7742   -5.6529 H         1 UNK         0.3093 
     90 H90        24.0610    1.4675   -5.9559 H         1 UNK         0.0818 
     91 H91        21.8403    1.2718   -7.0792 H         1 UNK         0.0819 
     92 H92        23.1390    1.3686   -8.2532 H         1 UNK         0.0819 
     93 H93        22.3820   -0.1819   -7.9194 H         1 UNK         0.0819 
     94 H94        22.3885   -0.9227   -5.5548 H         1 UNK         0.3041 
     95 H95        22.1550   -0.3225   -2.2475 H         1 UNK         0.0784 
     96 H96        20.6751   -1.0295   -4.1356 H         1 UNK         0.0793 
     97 H97        21.6596   -2.4724   -4.3889 H         1 UNK         0.0793 
     98 H98        20.7623   -2.2605   -2.8942 H         1 UNK         0.0793 
     99 H99        23.4246   -1.8671   -1.2765 H         1 UNK         0.3024 
    100 H100       24.4019   -4.0792   -1.0705 H         1 UNK         0.1171 
    101 H101       25.0374   -5.5896   -2.8995 H         1 UNK         0.0786 
    102 H102       26.3957   -4.5763   -3.3429 H         1 UNK         0.0786 
    103 H103       26.3955   -5.4262   -1.7971 H         1 UNK         0.0786 
    104 H104       26.9537   -2.7116   -1.7144 H         1 UNK         0.2977 
    105 H105       27.7372   -0.7740   -5.1542 H         1 UNK         0.3127 
    106 H106       30.3076   -0.5258   -6.3318 H         1 UNK         0.0770 
    107 H107       30.6110    1.2712   -4.5139 H         1 UNK         0.0814 
    108 H108       30.1389   -0.3159   -3.9513 H         1 UNK         0.0814 
    109 H109       28.9421    0.9809   -4.0457 H         1 UNK         0.0814 
    110 H110       27.4341    1.5118   -6.6500 H         1 UNK         0.2983 
    111 H111       28.8293    3.7617   -7.8655 H         1 UNK         0.0947 
    112 H112       26.5299    4.5856   -8.3293 H         1 UNK         0.0806 
    113 H113       26.6877    4.1032   -6.6485 H         1 UNK         0.0806 
    114 H114       25.8417    3.0617   -7.7919 H         1 UNK         0.0806 
    115 H115       26.8645    0.9955   -9.0208 H         1 UNK         0.3000 
    116 H116       27.0074    1.5862  -11.7960 H         1 UNK         0.0850 
    117 H117       25.3059    0.0736  -10.8149 H         1 UNK         0.0810 
    118 H118       26.5517   -1.0817  -10.3519 H         1 UNK         0.0810 
    119 H119       26.2183   -0.7775  -12.0529 H         1 UNK         0.0810 
    120 H120       29.0356   -0.5818   -9.7540 H         1 UNK         0.3040 
    121 H121       30.7873   -1.3022  -11.9673 H         1 UNK         0.0766 
    122 H122       30.9278   -1.8308   -8.9595 H         1 UNK         0.0812 
    123 H123       31.9982   -2.5522  -10.1541 H         1 UNK         0.0812 
    124 H124       30.2788   -2.9168  -10.1806 H         1 UNK         0.0812 
    125 H125       30.6633    1.4172   -9.9151 H         1 UNK         0.3205 
    126 H126       31.9300    3.1605   -9.4606 H         1 UNK         0.0754 
    127 H127       33.6473    3.9244  -11.0621 H         1 UNK         0.0769 
    128 H128       32.2439    3.3262  -11.9322 H         1 UNK         0.0769 
    129 H129       33.7033    2.3424  -11.8239 H         1 UNK         0.0769 
    130 H130       32.2302    1.2792   -7.7214 H         1 UNK         0.2981 
    131 H131       34.9963    0.4632   -7.2585 H         1 UNK         0.0541 
    132 H132       36.3074    1.1010   -5.3998 H         1 UNK         0.3459 
    133 H133       36.0439    2.6521   -4.6475 H         1 UNK         0.3459 
    134 H134       32.4966    0.1103   -5.5191 H         1 UNK         0.0612 
    135 H135       34.0680   -0.5603   -5.1604 H         1 UNK         0.0612 
    136 H136       33.5133   -3.9578   -6.4159 H         1 UNK         0.0624 
    137 H137       33.9773   -2.8814   -5.1304 H         1 UNK         0.0624 
@<TRIPOS>BOND
     1    1    2 1    
     2    1   72 1    
     3    1   73 1    
     4    1   74 1    
     5    2    3 2    
     6    2    4 am   BACKBONE|DICT|INTERRES
     7    4    5 1    
     8    4   75 1    
     9    5    6 1    
    10    5   35 1    
    11    5   76 1    
    12    6    7 1    
    13    6   77 1    
    14    6   78 1    
    15    7    8 1    
    16    8    9 1    
    17    8   79 1    
    18    8   80 1    
    19    9   10 ar   
    20    9   14 ar   
    21   10   11 ar   
    22   10   81 1    
    23   11   12 ar   
    24   11   71 1    
    25   12   13 ar   
    26   12   82 1    
    27   13   14 ar   
    28   13   15 1    
    29   14   83 1    
    30   15   16 1    
    31   15   84 1    
    32   15   85 1    
    33   16   17 1    
    34   17   18 1    
    35   17   86 1    
    36   17   87 1    
    37   18   19 1    
    38   18   37 1    
    39   18   88 1    
    40   19   20 am   BACKBONE|DICT|INTERRES
    41   19   89 1    
    42   20   21 2    
    43   20   22 1    
    44   22   23 1    
    45   22   24 1    
    46   22   90 1    
    47   23   91 1    
    48   23   92 1    
    49   23   93 1    
    50   24   25 am   BACKBONE|DICT|INTERRES
    51   24   94 1    
    52   25   26 2    
    53   25   27 1    
    54   27   28 1    
    55   27   29 1    
    56   27   95 1    
    57   28   96 1    
    58   28   97 1    
    59   28   98 1    
    60   29   30 am   BACKBONE|DICT|INTERRES
    61   29   99 1    
    62   30   31 2    
    63   30   32 1    
    64   32   33 1    
    65   32   34 1    
    66   32  100 1    
    67   33  101 1    
    68   33  102 1    
    69   33  103 1    
    70   34   35 am   BACKBONE|DICT|INTERRES
    71   34  104 1    
    72   35   36 2    
    73   37   38 2    
    74   37   39 am   BACKBONE|DICT|INTERRES
    75   39   40 1    
    76   39  105 1    
    77   40   41 1    
    78   40   42 1    
    79   40  106 1    
    80   41  107 1    
    81   41  108 1    
    82   41  109 1    
    83   42   43 2    
    84   42   44 am   BACKBONE|DICT|INTERRES
    85   44   45 1    
    86   44  110 1    
    87   45   46 1    
    88   45   47 1    
    89   45  111 1    
    90   46  112 1    
    91   46  113 1    
    92   46  114 1    
    93   47   48 2    
    94   47   49 am   BACKBONE|DICT|INTERRES
    95   49   50 1    
    96   49  115 1    
    97   50   51 1    
    98   50   52 1    
    99   50  116 1    
   100   51  117 1    
   101   51  118 1    
   102   51  119 1    
   103   52   53 2    
   104   52   54 am   BACKBONE|DICT|INTERRES
   105   54   55 1    
   106   54  120 1    
   107   55   56 1    
   108   55   57 1    
   109   55  121 1    
   110   56  122 1    
   111   56  123 1    
   112   56  124 1    
   113   57   58 2    
   114   57   59 am   BACKBONE|DICT|INTERRES
   115   59   60 1    
   116   59  125 1    
   117   60   61 1    
   118   60   62 1    
   119   60  126 1    
   120   61  127 1    
   121   61  128 1    
   122   61  129 1    
   123   62   63 2    
   124   62   64 am   BACKBONE|DICT|INTERRES
   125   64   65 1    
   126   64  130 1    
   127   65   66 1    
   128   65   69 1    
   129   65  131 1    
   130   66   67 am   BACKBONE|DICT|INTERRES
   131   66   68 2    
   132   67  132 1    
   133   67  133 1    
   134   69   70 1    
   135   69  134 1    
   136   69  135 1    
   137   70   71 1    
   138   71  136 1    
   139   71  137 1    
@<TRIPOS>SUBSTRUCTURE
     1 UNK         1 GROUP             0       ****    0 ROOT    
