@<TRIPOS>MOLECULE
3R137
137   139    1
SMALL
USER_CHARGES


@<TRIPOS>ATOM
      1 CA         25.6556   -5.2369    1.6044 C.3       0 UNK        -0.2020 
      2 C          26.1688   -4.1706    0.6477 C.2       0 UNK         0.4855 
      3 O          25.8291   -4.2013   -0.5350 O.2       0 UNK        -0.5197 
      4 N          26.9895   -3.2382    1.1526 N.am      1 UNK        -0.4892 
      5 CA         27.5493   -2.0865    0.4299 C.3       1 UNK         0.0835 
      6 C6         28.3934   -2.5084   -0.8107 C.3       12 UNK        -0.0855 
      7 S7         29.8035   -1.3919   -1.1206 S.3       12 UNK        -0.2931 
      8 C8         31.0386   -2.5467   -1.7986 C.3       12 UNK         0.0378 
      9 C9         30.7911   -2.8366   -3.2724 C.ar      12 UNK        -0.0802 
     10 C10        31.4624   -2.0957   -4.2495 C.ar      12 UNK        -0.0944 
     11 C11        31.2556   -2.3608   -5.6053 C.ar      12 UNK        -0.0787 
     12 C12        30.3754   -3.3778   -5.9840 C.ar      12 UNK        -0.0862 
     13 C13        29.6779   -4.1091   -5.0192 C.ar      12 UNK        -0.0733 
     14 C14        29.8974   -3.8402   -3.6634 C.ar      12 UNK        -0.0832 
     15 C15        28.6923   -5.1914   -5.4383 C.3       12 UNK         0.0240 
     16 S16        27.0529   -4.5056   -5.8515 S.3       12 UNK        -0.2522 
     17 C17        27.1923   -4.1856   -7.6501 C.3       12 UNK        -0.0967 
     18 CA         26.7497   -2.7677   -8.0961 C.3       5 UNK         0.0660 
     19 N          25.3910   -2.4362   -7.6558 N.am      5 UNK        -0.4015 
     20 C          24.6877   -1.3773   -8.0832 C.2       4 UNK         0.4946 
     21 O          25.0840   -0.5985   -8.9488 O.2       4 UNK        -0.5353 
     22 CA         23.3350   -1.1068   -7.3987 C.3       4 UNK         0.0277 
     23 CB         22.2080   -1.8641   -8.1187 C.3       4 UNK        -0.1981 
     24 N          23.3079   -1.4277   -5.9660 N.am      4 UNK        -0.4209 
     25 C          24.1484   -0.9268   -5.0494 C.2       3 UNK         0.4942 
     26 O          25.0602   -0.1423   -5.3229 O.2       3 UNK        -0.5208 
     27 CA         23.9613   -1.4290   -3.6068 C.3       3 UNK         0.0250 
     28 CB         24.1875   -2.9487   -3.5141 C.3       3 UNK        -0.1990 
     29 N          24.8941   -0.7766   -2.6899 N.am      3 UNK        -0.4232 
     30 C          24.7561    0.4495   -2.1690 C.2       2 UNK         0.4993 
     31 O          23.7579    1.1534   -2.3348 O.2       2 UNK        -0.5286 
     32 CA         25.9440    0.9797   -1.3353 C.3       2 UNK         0.0209 
     33 CB         25.5066    1.9705   -0.2345 C.3       2 UNK        -0.1931 
     34 N          26.8036   -0.0836   -0.7867 N.am      2 UNK        -0.4546 
     35 C          26.4672   -1.0254    0.1088 C.2       1 UNK         0.5154 
     36 O          25.3696   -1.0696    0.6715 O.2       1 UNK        -0.5181 
     37 C          27.7758   -1.6851   -7.7050 C.2       5 UNK         0.5014 
     38 O          28.6197   -1.3281   -8.5290 O.2       5 UNK        -0.5248 
     39 N          27.6624   -1.1595   -6.4769 N.am      6 UNK        -0.4434 
     40 CA         28.5038   -0.0842   -5.9562 C.3       6 UNK         0.0363 
     41 CB         28.3452    0.0241   -4.4319 C.3       6 UNK        -0.1936 
     42 C          28.2151    1.2484   -6.6524 C.2       6 UNK         0.5081 
     43 O          29.1555    1.9466   -7.0272 O.2       6 UNK        -0.5248 
     44 N          26.9265    1.5495   -6.8619 N.am      7 UNK        -0.4718 
     45 CA         26.4637    2.7205   -7.6096 C.3       7 UNK         0.0273 
     46 CB         24.9326    2.8136   -7.5185 C.3       7 UNK        -0.1935 
     47 C          26.9267    2.7198   -9.0785 C.2       7 UNK         0.5018 
     48 O          27.2861    3.7782   -9.5954 O.2       7 UNK        -0.5186 
     49 N          26.9165    1.5404   -9.7151 N.am      8 UNK        -0.4240 
     50 CA         27.3551    1.3394  -11.0939 C.3       8 UNK         0.0235 
     51 CB         26.7855    0.0162  -11.6342 C.3       8 UNK        -0.2000 
     52 C          28.8831    1.3832  -11.2532 C.2       8 UNK         0.4941 
     53 O          29.3792    2.1945  -12.0363 O.2       8 UNK        -0.5273 
     54 N          29.5982    0.4839  -10.5611 N.am      9 UNK        -0.4262 
     55 CA         31.0171    0.2156  -10.8212 C.3       9 UNK         0.0264 
     56 CB         31.2825   -1.2940  -10.6884 C.3       9 UNK        -0.1955 
     57 C          31.9968    1.0377   -9.9671 C.2       9 UNK         0.5031 
     58 O          33.1847    1.0453  -10.2965 O.2       9 UNK        -0.5390 
     59 N          31.5204    1.7076   -8.9056 N.am      10 UNK        -0.4204 
     60 CA         32.2552    2.5835   -7.9741 C.3       10 UNK         0.0237 
     61 CB         32.8864    3.7882   -8.7005 C.3       10 UNK        -0.1985 
     62 C          33.2860    1.8701   -7.0772 C.2       10 UNK         0.4970 
     63 O          33.2730    2.0927   -5.8659 O.2       10 UNK        -0.4914 
     64 N          34.1322    1.0203   -7.6714 N.am      11 UNK        -0.4285 
     65 CA         35.1942    0.2268   -7.0285 C.3       11 UNK         0.1007 
     66 C          36.2765    1.1062   -6.3265 C.2       11 UNK         0.5703 
     67 N          37.0116    0.5776   -5.3561 N.am      11 UNK        -0.7361 
     68 O          36.5036    2.2576   -6.6961 O.2       11 UNK        -0.4986 
     69 C69        34.6286   -0.9283   -6.1449 C.3       12 UNK        -0.0947 
     70 S70        33.5848   -2.0847   -7.0969 S.3       12 UNK        -0.2240 
     71 C71        31.9197   -1.5014   -6.6664 C.3       12 UNK         0.0194 
     72 H72        25.9496   -6.2264    1.2554 H         1 UNK         0.0906 
     73 H73        26.0454   -5.1036    2.6134 H         1 UNK         0.0906 
     74 H74        24.5676   -5.2023    1.6539 H         1 UNK         0.0906 
     75 H75        27.1993   -3.2603    2.1413 H         1 UNK         0.3140 
     76 H76        28.2166   -1.6095    1.1499 H         1 UNK         0.1085 
     77 H77        28.7976   -3.5077   -0.6436 H         1 UNK         0.0836 
     78 H78        27.7824   -2.5924   -1.7119 H         1 UNK         0.0836 
     79 H79        31.0508   -3.4737   -1.2236 H         1 UNK         0.0731 
     80 H80        32.0287   -2.1060   -1.6710 H         1 UNK         0.0731 
     81 H81        32.1363   -1.3029   -3.9553 H         1 UNK         0.1312 
     82 H82        30.2113   -3.5764   -7.0336 H         1 UNK         0.1406 
     83 H83        29.3674   -4.4092   -2.9121 H         1 UNK         0.1631 
     84 H84        28.5668   -5.9094   -4.6265 H         1 UNK         0.0717 
     85 H85        29.0883   -5.7620   -6.2795 H         1 UNK         0.0717 
     86 H86        28.2074   -4.3891   -7.9944 H         1 UNK         0.0934 
     87 H87        26.5709   -4.9260   -8.1563 H         1 UNK         0.0934 
     88 H88        26.7247   -2.7751   -9.1882 H         1 UNK         0.0739 
     89 H89        24.9981   -3.0256   -6.9368 H         1 UNK         0.3093 
     90 H90        23.1363   -0.0374   -7.4906 H         1 UNK         0.0818 
     91 H91        21.2298   -1.5953   -7.7195 H         1 UNK         0.0819 
     92 H92        22.1966   -1.6253   -9.1833 H         1 UNK         0.0819 
     93 H93        22.3234   -2.9450   -8.0287 H         1 UNK         0.0819 
     94 H94        22.5855   -2.0647   -5.6619 H         1 UNK         0.3041 
     95 H95        22.9393   -1.2012   -3.2969 H         1 UNK         0.0784 
     96 H96        23.4912   -3.5030   -4.1440 H         1 UNK         0.0793 
     97 H97        25.1975   -3.2266   -3.8173 H         1 UNK         0.0793 
     98 H98        24.0416   -3.3047   -2.4938 H         1 UNK         0.0793 
     99 H99        25.7533   -1.2699   -2.5046 H         1 UNK         0.3024 
    100 H100       26.5652    1.5363   -2.0391 H         1 UNK         0.1171 
    101 H101       26.3617    2.3348    0.3347 H         1 UNK         0.0786 
    102 H102       25.0131    2.8418   -0.6668 H         1 UNK         0.0786 
    103 H103       24.8044    1.5174    0.4656 H         1 UNK         0.0786 
    104 H104       27.7431   -0.1289   -1.1645 H         1 UNK         0.2977 
    105 H105       26.8980   -1.4602   -5.8892 H         1 UNK         0.3127 
    106 H106       29.5399   -0.3353   -6.1681 H         1 UNK         0.0770 
    107 H107       27.3423    0.3396   -4.1483 H         1 UNK         0.0814 
    108 H108       28.5496   -0.9302   -3.9468 H         1 UNK         0.0814 
    109 H109       29.0453    0.7524   -4.0213 H         1 UNK         0.0814 
    110 H110       26.2184    0.9250   -6.4837 H         1 UNK         0.2983 
    111 H111       26.8901    3.6047   -7.1310 H         1 UNK         0.0947 
    112 H112       24.5970    2.8500   -6.4817 H         1 UNK         0.0806 
    113 H113       24.4486    1.9625   -7.9975 H         1 UNK         0.0806 
    114 H114       24.5675    3.7157   -8.0112 H         1 UNK         0.0806 
    115 H115       26.5269    0.7330   -9.2369 H         1 UNK         0.3000 
    116 H116       26.9393    2.1472  -11.7004 H         1 UNK         0.0850 
    117 H117       27.1118   -0.1620  -12.6598 H         1 UNK         0.0810 
    118 H118       25.6954    0.0302  -11.6393 H         1 UNK         0.0810 
    119 H119       27.1023   -0.8387  -11.0357 H         1 UNK         0.0810 
    120 H120       29.1302   -0.1358   -9.9012 H         1 UNK         0.3040 
    121 H121       31.2419    0.4767  -11.8579 H         1 UNK         0.0766 
    122 H122       30.9740   -1.6828   -9.7212 H         1 UNK         0.0812 
    123 H123       32.3418   -1.5245  -10.8114 H         1 UNK         0.0812 
    124 H124       30.7418   -1.8532  -11.4519 H         1 UNK         0.0812 
    125 H125       30.5350    1.6086   -8.6860 H         1 UNK         0.3205 
    126 H126       31.4992    2.9888   -7.3009 H         1 UNK         0.0754 
    127 H127       33.3312    4.4816   -7.9855 H         1 UNK         0.0769 
    128 H128       32.1395    4.3428   -9.2685 H         1 UNK         0.0769 
    129 H129       33.6761    3.4868   -9.3891 H         1 UNK         0.0769 
    130 H130       34.0496    0.9252   -8.6809 H         1 UNK         0.2981 
    131 H131       35.7307   -0.2377   -7.8563 H         1 UNK         0.0541 
    132 H132       37.7250    1.1419   -4.9216 H         1 UNK         0.3459 
    133 H133       36.8656   -0.3705   -5.0483 H         1 UNK         0.3459 
    134 H134       34.0769   -0.5335   -5.2908 H         1 UNK         0.0612 
    135 H135       35.4390   -1.5283   -5.7297 H         1 UNK         0.0612 
    136 H136       31.3070   -1.4925   -7.5651 H         1 UNK         0.0624 
    137 H137       31.9512   -0.4674   -6.3268 H         1 UNK         0.0624 
@<TRIPOS>BOND
     1    1    2 1    
     2    1   72 1    
     3    1   73 1    
     4    1   74 1    
     5    2    3 2    
     6    2    4 am   BACKBONE|DICT|INTERRES
     7    4    5 1    
     8    4   75 1    
     9    5    6 1    
    10    5   35 1    
    11    5   76 1    
    12    6    7 1    
    13    6   77 1    
    14    6   78 1    
    15    7    8 1    
    16    8    9 1    
    17    8   79 1    
    18    8   80 1    
    19    9   10 ar   
    20    9   14 ar   
    21   10   11 ar   
    22   10   81 1    
    23   11   12 ar   
    24   11   71 1    
    25   12   13 ar   
    26   12   82 1    
    27   13   14 ar   
    28   13   15 1    
    29   14   83 1    
    30   15   16 1    
    31   15   84 1    
    32   15   85 1    
    33   16   17 1    
    34   17   18 1    
    35   17   86 1    
    36   17   87 1    
    37   18   19 1    
    38   18   37 1    
    39   18   88 1    
    40   19   20 am   BACKBONE|DICT|INTERRES
    41   19   89 1    
    42   20   21 2    
    43   20   22 1    
    44   22   23 1    
    45   22   24 1    
    46   22   90 1    
    47   23   91 1    
    48   23   92 1    
    49   23   93 1    
    50   24   25 am   BACKBONE|DICT|INTERRES
    51   24   94 1    
    52   25   26 2    
    53   25   27 1    
    54   27   28 1    
    55   27   29 1    
    56   27   95 1    
    57   28   96 1    
    58   28   97 1    
    59   28   98 1    
    60   29   30 am   BACKBONE|DICT|INTERRES
    61   29   99 1    
    62   30   31 2    
    63   30   32 1    
    64   32   33 1    
    65   32   34 1    
    66   32  100 1    
    67   33  101 1    
    68   33  102 1    
    69   33  103 1    
    70   34   35 am   BACKBONE|DICT|INTERRES
    71   34  104 1    
    72   35   36 2    
    73   37   38 2    
    74   37   39 am   BACKBONE|DICT|INTERRES
    75   39   40 1    
    76   39  105 1    
    77   40   41 1    
    78   40   42 1    
    79   40  106 1    
    80   41  107 1    
    81   41  108 1    
    82   41  109 1    
    83   42   43 2    
    84   42   44 am   BACKBONE|DICT|INTERRES
    85   44   45 1    
    86   44  110 1    
    87   45   46 1    
    88   45   47 1    
    89   45  111 1    
    90   46  112 1    
    91   46  113 1    
    92   46  114 1    
    93   47   48 2    
    94   47   49 am   BACKBONE|DICT|INTERRES
    95   49   50 1    
    96   49  115 1    
    97   50   51 1    
    98   50   52 1    
    99   50  116 1    
   100   51  117 1    
   101   51  118 1    
   102   51  119 1    
   103   52   53 2    
   104   52   54 am   BACKBONE|DICT|INTERRES
   105   54   55 1    
   106   54  120 1    
   107   55   56 1    
   108   55   57 1    
   109   55  121 1    
   110   56  122 1    
   111   56  123 1    
   112   56  124 1    
   113   57   58 2    
   114   57   59 am   BACKBONE|DICT|INTERRES
   115   59   60 1    
   116   59  125 1    
   117   60   61 1    
   118   60   62 1    
   119   60  126 1    
   120   61  127 1    
   121   61  128 1    
   122   61  129 1    
   123   62   63 2    
   124   62   64 am   BACKBONE|DICT|INTERRES
   125   64   65 1    
   126   64  130 1    
   127   65   66 1    
   128   65   69 1    
   129   65  131 1    
   130   66   67 am   BACKBONE|DICT|INTERRES
   131   66   68 2    
   132   67  132 1    
   133   67  133 1    
   134   69   70 1    
   135   69  134 1    
   136   69  135 1    
   137   70   71 1    
   138   71  136 1    
   139   71  137 1    
@<TRIPOS>SUBSTRUCTURE
     1 UNK         1 GROUP             0       ****    0 ROOT    
