@<TRIPOS>MOLECULE
3R137
137   139    1
SMALL
USER_CHARGES


@<TRIPOS>ATOM
      1 CA         28.1388   -5.3103    1.7749 C.3       0 UNK        -0.2020 
      2 C          27.7710   -4.2434    0.7553 C.2       0 UNK         0.4855 
      3 O          27.7795   -4.5224   -0.4432 O.2       0 UNK        -0.5197 
      4 N          27.4528   -3.0297    1.2272 N.am      1 UNK        -0.4892 
      5 CA         27.0647   -1.8232    0.4761 C.3       1 UNK         0.0835 
      6 C6         28.1279   -1.3060   -0.5301 C.3       12 UNK        -0.0855 
      7 S7         29.7474   -0.9276    0.2246 S.3       12 UNK        -0.2931 
      8 C8         30.8041   -2.2836   -0.3874 C.3       12 UNK         0.0378 
      9 C9         30.9005   -2.3136   -1.9077 C.ar      12 UNK        -0.0802 
     10 C10        31.7110   -1.3995   -2.5867 C.ar      12 UNK        -0.0944 
     11 C11        31.8014   -1.4346   -3.9820 C.ar      12 UNK        -0.0787 
     12 C12        31.0658   -2.3836   -4.7000 C.ar      12 UNK        -0.0862 
     13 C13        30.2549   -3.3041   -4.0306 C.ar      12 UNK        -0.0733 
     14 C14        30.1866   -3.2694   -2.6364 C.ar      12 UNK        -0.0832 
     15 C15        29.4630   -4.3528   -4.7965 C.3       12 UNK         0.0240 
     16 S16        27.8453   -3.7134   -5.3333 S.3       12 UNK        -0.2522 
     17 C17        28.1951   -3.2453   -7.0626 C.3       12 UNK        -0.0967 
     18 CA         27.4564   -1.9770   -7.5527 C.3       5 UNK         0.0660 
     19 N          26.0088   -2.0412   -7.3256 N.am      5 UNK        -0.4015 
     20 C          25.1137   -1.2812   -7.9701 C.2       4 UNK         0.4946 
     21 O          25.4152   -0.4258   -8.8026 O.2       4 UNK        -0.5353 
     22 CA         23.6353   -1.4957   -7.6092 C.3       4 UNK         0.0277 
     23 CB         23.1520   -2.8897   -8.0447 C.3       4 UNK        -0.1981 
     24 N          23.3430   -1.2892   -6.1880 N.am      4 UNK        -0.4209 
     25 C          23.5370   -0.1387   -5.5273 C.2       3 UNK         0.4942 
     26 O          24.0584    0.8582   -6.0202 O.2       3 UNK        -0.5208 
     27 CA         23.0745   -0.0783   -4.0642 C.3       3 UNK         0.0250 
     28 CB         21.5971    0.3388   -3.9858 C.3       3 UNK        -0.1990 
     29 N          23.2750   -1.3183   -3.3113 N.am      3 UNK        -0.4232 
     30 C          24.4699   -1.8730   -3.0715 C.2       2 UNK         0.4993 
     31 O          25.5266   -1.4806   -3.5734 O.2       2 UNK        -0.5286 
     32 CA         24.4851   -3.0634   -2.0979 C.3       2 UNK         0.0209 
     33 CB         24.6371   -4.3887   -2.8610 C.3       2 UNK        -0.1931 
     34 N          25.5825   -2.9284   -1.1414 N.am      2 UNK        -0.4546 
     35 C          25.6985   -1.9570   -0.2271 C.2       1 UNK         0.5154 
     36 O          24.7910   -1.1719    0.0535 O.2       1 UNK        -0.5181 
     37 C          28.0905   -0.6728   -7.0287 C.2       5 UNK         0.5014 
     38 O          29.0772   -0.2126   -7.6108 O.2       5 UNK        -0.5248 
     39 N          27.4967   -0.0820   -5.9808 N.am      6 UNK        -0.4434 
     40 CA         27.8617    1.2336   -5.4599 C.3       6 UNK         0.0363 
     41 CB         27.1964    1.4553   -4.0926 C.3       6 UNK        -0.1936 
     42 C          27.5083    2.3619   -6.4444 C.2       6 UNK         0.5081 
     43 O          28.3709    3.1874   -6.7413 O.2       6 UNK        -0.5248 
     44 N          26.2700    2.3650   -6.9626 N.am      7 UNK        -0.4718 
     45 CA         25.7804    3.3404   -7.9448 C.3       7 UNK         0.0273 
     46 CB         24.2577    3.2087   -8.1038 C.3       7 UNK        -0.1935 
     47 C          26.4726    3.2196   -9.3106 C.2       7 UNK         0.5018 
     48 O          26.7514    4.2428   -9.9366 O.2       7 UNK        -0.5186 
     49 N          26.7688    1.9818   -9.7333 N.am      8 UNK        -0.4240 
     50 CA         27.5626    1.6841  -10.9296 C.3       8 UNK         0.0235 
     51 CB         27.4116    0.1951  -11.2807 C.3       8 UNK        -0.2000 
     52 C          29.0535    2.0435  -10.7833 C.2       8 UNK         0.4941 
     53 O          29.7434    2.1224  -11.8005 O.2       8 UNK        -0.5273 
     54 N          29.5192    2.2366   -9.5382 N.am      9 UNK        -0.4262 
     55 CA         30.8984    2.5111   -9.1265 C.3       9 UNK         0.0264 
     56 CB         31.3500    3.9064   -9.6066 C.3       9 UNK        -0.1955 
     57 C          31.8556    1.3834   -9.5486 C.2       9 UNK         0.5031 
     58 O          32.9087    1.6489  -10.1329 O.2       9 UNK        -0.5390 
     59 N          31.4695    0.1354   -9.2403 N.am      10 UNK        -0.4204 
     60 CA         32.1785   -1.0908   -9.6339 C.3       10 UNK         0.0237 
     61 CB         31.3549   -2.3103   -9.1941 C.3       10 UNK        -0.1985 
     62 C          33.6224   -1.1995   -9.1052 C.2       10 UNK         0.4970 
     63 O          34.4296   -1.9147   -9.6999 O.2       10 UNK        -0.4914 
     64 N          33.9191   -0.4813   -8.0165 N.am      11 UNK        -0.4285 
     65 CA         35.2614   -0.3200   -7.4423 C.3       11 UNK         0.1007 
     66 C          36.1853    0.6464   -8.2422 C.2       11 UNK         0.5703 
     67 N          35.6959    1.3914   -9.2278 N.am      11 UNK        -0.7361 
     68 O          37.3809    0.7137   -7.9667 O.2       11 UNK        -0.4986 
     69 C69        35.1851    0.0875   -5.9474 C.3       12 UNK        -0.0947 
     70 S70        34.3652   -1.1814   -4.9275 S.3       12 UNK        -0.2240 
     71 C71        32.7090   -0.4616   -4.7139 C.3       12 UNK         0.0194 
     72 H72        27.4532   -6.1538    1.6978 H         1 UNK         0.0906 
     73 H73        29.1486   -5.6740    1.5871 H         1 UNK         0.0906 
     74 H74        28.0991   -4.9325    2.7963 H         1 UNK         0.0906 
     75 H75        27.4573   -2.8992    2.2297 H         1 UNK         0.3140 
     76 H76        26.9381   -1.0450    1.2311 H         1 UNK         0.1085 
     77 H77        28.2456   -2.0084   -1.3531 H         1 UNK         0.0836 
     78 H78        27.7781   -0.3821   -0.9951 H         1 UNK         0.0836 
     79 H79        31.8035   -2.1657    0.0337 H         1 UNK         0.0731 
     80 H80        30.4287   -3.2339   -0.0067 H         1 UNK         0.0731 
     81 H81        32.2758   -0.6658   -2.0277 H         1 UNK         0.1312 
     82 H82        31.1351   -2.4115   -5.7773 H         1 UNK         0.1406 
     83 H83        29.5644   -3.9851   -2.1182 H         1 UNK         0.1631 
     84 H84        29.2922   -5.2234   -4.1612 H         1 UNK         0.0717 
     85 H85        30.0369   -4.7179   -5.6495 H         1 UNK         0.0717 
     86 H86        29.2694   -3.1331   -7.2066 H         1 UNK         0.0934 
     87 H87        27.9092   -4.0908   -7.6903 H         1 UNK         0.0934 
     88 H88        27.5966   -1.9486   -8.6353 H         1 UNK         0.0739 
     89 H89        25.6948   -2.6951   -6.6229 H         1 UNK         0.3093 
     90 H90        23.0599   -0.7540   -8.1676 H         1 UNK         0.0818 
     91 H91        22.0738   -2.9909   -7.9194 H         1 UNK         0.0819 
     92 H92        23.3697   -3.0660   -9.0992 H         1 UNK         0.0819 
     93 H93        23.6306   -3.6871   -7.4751 H         1 UNK         0.0819 
     94 H94        22.9159   -2.0566   -5.6904 H         1 UNK         0.3041 
     95 H95        23.6685    0.6956   -3.5731 H         1 UNK         0.0784 
     96 H96        21.4269    1.2729   -4.5235 H         1 UNK         0.0793 
     97 H97        20.9394   -0.4133   -4.4234 H         1 UNK         0.0793 
     98 H98        21.2840    0.5011   -2.9542 H         1 UNK         0.0793 
     99 H99        22.4569   -1.7106   -2.8672 H         1 UNK         0.3024 
    100 H100       23.5490   -3.0841   -1.5356 H         1 UNK         0.1171 
    101 H101       23.8253   -4.5256   -3.5765 H         1 UNK         0.0786 
    102 H102       24.6191   -5.2413   -2.1818 H         1 UNK         0.0786 
    103 H103       25.5741   -4.4260   -3.4178 H         1 UNK         0.0786 
    104 H104       26.3807   -3.5480   -1.2560 H         1 UNK         0.2977 
    105 H105       26.7140   -0.5464   -5.5378 H         1 UNK         0.3127 
    106 H106       28.9441    1.2458   -5.3128 H         1 UNK         0.0770 
    107 H107       26.1086    1.4287   -4.1610 H         1 UNK         0.0814 
    108 H108       27.4754    2.4234   -3.6750 H         1 UNK         0.0814 
    109 H109       27.5027    0.6914   -3.3773 H         1 UNK         0.0814 
    110 H110       25.5947    1.6690   -6.6495 H         1 UNK         0.2983 
    111 H111       25.9958    4.3383   -7.5566 H         1 UNK         0.0947 
    112 H112       23.8736    3.9354   -8.8209 H         1 UNK         0.0806 
    113 H113       23.7443    3.3842   -7.1584 H         1 UNK         0.0806 
    114 H114       23.9751    2.2165   -8.4588 H         1 UNK         0.0806 
    115 H115       26.4236    1.1857   -9.2014 H         1 UNK         0.3000 
    116 H116       27.1635    2.2742  -11.7573 H         1 UNK         0.0850 
    117 H117       27.9471   -0.0471  -12.1997 H         1 UNK         0.0810 
    118 H118       26.3664   -0.0738  -11.4344 H         1 UNK         0.0810 
    119 H119       27.8110   -0.4438  -10.4930 H         1 UNK         0.0810 
    120 H120       28.8610    2.1409   -8.7751 H         1 UNK         0.3040 
    121 H121       30.8957    2.5217   -8.0354 H         1 UNK         0.0766 
    122 H122       32.3355    4.1546   -9.2106 H         1 UNK         0.0812 
    123 H123       30.6607    4.6814   -9.2712 H         1 UNK         0.0812 
    124 H124       31.4142    3.9613  -10.6938 H         1 UNK         0.0812 
    125 H125       30.5944    0.0156   -8.7313 H         1 UNK         0.3205 
    126 H126       32.2357   -1.0921  -10.7243 H         1 UNK         0.0754 
    127 H127       31.8129   -3.2380   -9.5400 H         1 UNK         0.0769 
    128 H128       30.3431   -2.2768   -9.5989 H         1 UNK         0.0769 
    129 H129       31.2845   -2.3665   -8.1088 H         1 UNK         0.0769 
    130 H130       33.1928    0.0865   -7.6111 H         1 UNK         0.2981 
    131 H131       35.7538   -1.2933   -7.4885 H         1 UNK         0.0541 
    132 H132       34.7130    1.3596   -9.4824 H         1 UNK         0.3459 
    133 H133       36.3182    2.0031   -9.7310 H         1 UNK         0.3459 
    134 H134       34.6760    1.0459   -5.8303 H         1 UNK         0.0612 
    135 H135       36.1871    0.2246   -5.5365 H         1 UNK         0.0612 
    136 H136       32.7875    0.4754   -4.1602 H         1 UNK         0.0624 
    137 H137       32.2805   -0.2153   -5.6861 H         1 UNK         0.0624 
@<TRIPOS>BOND
     1    1    2 1    
     2    1   72 1    
     3    1   73 1    
     4    1   74 1    
     5    2    3 2    
     6    2    4 am   BACKBONE|DICT|INTERRES
     7    4    5 1    
     8    4   75 1    
     9    5    6 1    
    10    5   35 1    
    11    5   76 1    
    12    6    7 1    
    13    6   77 1    
    14    6   78 1    
    15    7    8 1    
    16    8    9 1    
    17    8   79 1    
    18    8   80 1    
    19    9   10 ar   
    20    9   14 ar   
    21   10   11 ar   
    22   10   81 1    
    23   11   12 ar   
    24   11   71 1    
    25   12   13 ar   
    26   12   82 1    
    27   13   14 ar   
    28   13   15 1    
    29   14   83 1    
    30   15   16 1    
    31   15   84 1    
    32   15   85 1    
    33   16   17 1    
    34   17   18 1    
    35   17   86 1    
    36   17   87 1    
    37   18   19 1    
    38   18   37 1    
    39   18   88 1    
    40   19   20 am   BACKBONE|DICT|INTERRES
    41   19   89 1    
    42   20   21 2    
    43   20   22 1    
    44   22   23 1    
    45   22   24 1    
    46   22   90 1    
    47   23   91 1    
    48   23   92 1    
    49   23   93 1    
    50   24   25 am   BACKBONE|DICT|INTERRES
    51   24   94 1    
    52   25   26 2    
    53   25   27 1    
    54   27   28 1    
    55   27   29 1    
    56   27   95 1    
    57   28   96 1    
    58   28   97 1    
    59   28   98 1    
    60   29   30 am   BACKBONE|DICT|INTERRES
    61   29   99 1    
    62   30   31 2    
    63   30   32 1    
    64   32   33 1    
    65   32   34 1    
    66   32  100 1    
    67   33  101 1    
    68   33  102 1    
    69   33  103 1    
    70   34   35 am   BACKBONE|DICT|INTERRES
    71   34  104 1    
    72   35   36 2    
    73   37   38 2    
    74   37   39 am   BACKBONE|DICT|INTERRES
    75   39   40 1    
    76   39  105 1    
    77   40   41 1    
    78   40   42 1    
    79   40  106 1    
    80   41  107 1    
    81   41  108 1    
    82   41  109 1    
    83   42   43 2    
    84   42   44 am   BACKBONE|DICT|INTERRES
    85   44   45 1    
    86   44  110 1    
    87   45   46 1    
    88   45   47 1    
    89   45  111 1    
    90   46  112 1    
    91   46  113 1    
    92   46  114 1    
    93   47   48 2    
    94   47   49 am   BACKBONE|DICT|INTERRES
    95   49   50 1    
    96   49  115 1    
    97   50   51 1    
    98   50   52 1    
    99   50  116 1    
   100   51  117 1    
   101   51  118 1    
   102   51  119 1    
   103   52   53 2    
   104   52   54 am   BACKBONE|DICT|INTERRES
   105   54   55 1    
   106   54  120 1    
   107   55   56 1    
   108   55   57 1    
   109   55  121 1    
   110   56  122 1    
   111   56  123 1    
   112   56  124 1    
   113   57   58 2    
   114   57   59 am   BACKBONE|DICT|INTERRES
   115   59   60 1    
   116   59  125 1    
   117   60   61 1    
   118   60   62 1    
   119   60  126 1    
   120   61  127 1    
   121   61  128 1    
   122   61  129 1    
   123   62   63 2    
   124   62   64 am   BACKBONE|DICT|INTERRES
   125   64   65 1    
   126   64  130 1    
   127   65   66 1    
   128   65   69 1    
   129   65  131 1    
   130   66   67 am   BACKBONE|DICT|INTERRES
   131   66   68 2    
   132   67  132 1    
   133   67  133 1    
   134   69   70 1    
   135   69  134 1    
   136   69  135 1    
   137   70   71 1    
   138   71  136 1    
   139   71  137 1    
@<TRIPOS>SUBSTRUCTURE
     1 UNK         1 GROUP             0       ****    0 ROOT    
