@<TRIPOS>MOLECULE
3R137
137   139    1
SMALL
USER_CHARGES


@<TRIPOS>ATOM
      1 CA         26.3369   -1.7727    0.6982 C.3       0 UNK        -0.2020 
      2 C          26.5874   -0.5693   -0.1970 C.2       0 UNK         0.4855 
      3 O          25.7517    0.3326   -0.2649 O.2       0 UNK        -0.5197 
      4 N          27.7259   -0.5495   -0.8994 N.am      1 UNK        -0.4892 
      5 CA         28.1087    0.4856   -1.8638 C.3       1 UNK         0.0835 
      6 C6         29.5902    0.3511   -2.3018 C.3       12 UNK        -0.0855 
      7 S7         30.0973   -1.3397   -2.7816 S.3       12 UNK        -0.2931 
      8 C8         30.4030   -1.0907   -4.5535 C.3       12 UNK         0.0378 
      9 C9         30.7074   -2.3976   -5.2684 C.ar      12 UNK        -0.0802 
     10 C10        31.9332   -3.0394   -5.0750 C.ar      12 UNK        -0.0944 
     11 C11        32.2502   -4.1930   -5.7966 C.ar      12 UNK        -0.0787 
     12 C12        31.3313   -4.6996   -6.7204 C.ar      12 UNK        -0.0862 
     13 C13        30.0977   -4.0715   -6.9238 C.ar      12 UNK        -0.0733 
     14 C14        29.7860   -2.9316   -6.1722 C.ar      12 UNK        -0.0832 
     15 C15        29.1655   -4.5957   -8.0154 C.3       12 UNK         0.0240 
     16 S16        27.4276   -4.7844   -7.4996 S.3       12 UNK        -0.2522 
     17 C17        26.7325   -3.1528   -7.9383 C.3       12 UNK        -0.0967 
     18 CA         25.5611   -2.6783   -7.0324 C.3       5 UNK         0.0660 
     19 N          25.8073   -2.7830   -5.5934 N.am      5 UNK        -0.4015 
     20 C          25.3629   -3.7849   -4.8211 C.2       4 UNK         0.4946 
     21 O          24.7939   -4.7907   -5.2491 O.2       4 UNK        -0.5353 
     22 CA         25.5241   -3.6144   -3.3056 C.3       4 UNK         0.0277 
     23 CB         27.0024   -3.6584   -2.8821 C.3       4 UNK        -0.1981 
     24 N          24.8896   -2.3681   -2.8726 N.am      4 UNK        -0.4209 
     25 C          23.5700   -2.2418   -2.6508 C.2       3 UNK         0.4942 
     26 O          22.7825   -3.1879   -2.6917 O.2       3 UNK        -0.5208 
     27 CA         23.0123   -0.8439   -2.3242 C.3       3 UNK         0.0250 
     28 CB         22.6046   -0.7494   -0.8442 C.3       3 UNK        -0.1990 
     29 N          23.9533    0.2306   -2.6450 N.am      3 UNK        -0.4232 
     30 C          24.0882    0.7657   -3.8684 C.2       2 UNK         0.4993 
     31 O          23.3579    0.4813   -4.8176 O.2       2 UNK        -0.5286 
     32 CA         25.2296    1.7798   -4.0804 C.3       2 UNK         0.0209 
     33 CB         24.6870    3.2147   -3.9783 C.3       2 UNK        -0.1931 
     34 N          26.3511    1.6224   -3.1462 N.am      2 UNK        -0.4546 
     35 C          27.1140    0.5245   -3.0450 C.2       1 UNK         0.5154 
     36 O          26.9840   -0.4583   -3.7778 O.2       1 UNK        -0.5181 
     37 C          25.2450   -1.2064   -7.3190 C.2       5 UNK         0.5014 
     38 O          25.9498   -0.3333   -6.8068 O.2       5 UNK        -0.5248 
     39 N          24.2489   -0.9559   -8.1803 N.am      6 UNK        -0.4434 
     40 CA         23.7628    0.3796   -8.5575 C.3       6 UNK         0.0363 
     41 CB         22.5392    0.2267   -9.4760 C.3       6 UNK        -0.1936 
     42 C          24.8120    1.3023   -9.2103 C.2       6 UNK         0.5081 
     43 O          24.6099    2.5165   -9.2341 O.2       6 UNK        -0.5248 
     44 N          25.9136    0.7233   -9.7104 N.am      7 UNK        -0.4718 
     45 CA         27.0921    1.4369  -10.2072 C.3       7 UNK         0.0273 
     46 CB         28.0639    0.4279  -10.8416 C.3       7 UNK        -0.1935 
     47 C          27.8148    2.2575   -9.1226 C.2       7 UNK         0.5018 
     48 O          28.4087    3.2831   -9.4572 O.2       7 UNK        -0.5186 
     49 N          27.7561    1.7950   -7.8613 N.am      8 UNK        -0.4240 
     50 CA         28.2791    2.3922   -6.6215 C.3       8 UNK         0.0235 
     51 CB         27.5715    3.7269   -6.3216 C.3       8 UNK        -0.2000 
     52 C          29.8088    2.5649   -6.5441 C.2       8 UNK         0.4941 
     53 O          30.3996    2.2209   -5.5221 O.2       8 UNK        -0.5273 
     54 N          30.4212    3.0958   -7.6076 N.am      9 UNK        -0.4262 
     55 CA         31.8505    3.3988   -7.7262 C.3       9 UNK         0.0264 
     56 CB         32.0217    4.5467   -8.7364 C.3       9 UNK        -0.1955 
     57 C          32.7145    2.1869   -8.1254 C.2       9 UNK         0.5031 
     58 O          33.9326    2.3354   -8.2503 O.2       9 UNK        -0.5390 
     59 N          32.0882    1.0213   -8.3390 N.am      10 UNK        -0.4204 
     60 CA         32.7456   -0.2493   -8.6509 C.3       10 UNK         0.0237 
     61 CB         31.6725   -1.3143   -8.9248 C.3       10 UNK        -0.1985 
     62 C          33.7029   -0.7004   -7.5318 C.2       10 UNK         0.4970 
     63 O          33.4403   -0.4383   -6.3567 O.2       10 UNK        -0.4914 
     64 N          34.8033   -1.3476   -7.9339 N.am      11 UNK        -0.4285 
     65 CA         35.9189   -1.7865   -7.0744 C.3       11 UNK         0.1007 
     66 C          36.7458   -0.6318   -6.4247 C.2       11 UNK         0.5703 
     67 N          36.5403    0.6305   -6.7844 N.am      11 UNK        -0.7361 
     68 O          37.6261   -0.8866   -5.6057 O.2       11 UNK        -0.4986 
     69 C69        35.5132   -2.8774   -6.0402 C.3       12 UNK        -0.0947 
     70 S70        34.8233   -4.3766   -6.8188 S.3       12 UNK        -0.2240 
     71 C71        33.5842   -4.8945   -5.5896 C.3       12 UNK         0.0194 
     72 H72        25.5170   -2.3709    0.3017 H         1 UNK         0.0906 
     73 H73        27.2167   -2.4110    0.7765 H         1 UNK         0.0906 
     74 H74        26.0669   -1.4447    1.7016 H         1 UNK         0.0906 
     75 H75        28.3686   -1.3278   -0.8446 H         1 UNK         0.3140 
     76 H76        28.0279    1.4410   -1.3402 H         1 UNK         0.1085 
     77 H77        30.2309    0.6463   -1.4695 H         1 UNK         0.0836 
     78 H78        29.8212    1.0585   -3.1007 H         1 UNK         0.0836 
     79 H79        31.2415   -0.4043   -4.6822 H         1 UNK         0.0731 
     80 H80        29.5360   -0.6021   -5.0014 H         1 UNK         0.0731 
     81 H81        32.6453   -2.6240   -4.3757 H         1 UNK         0.1312 
     82 H82        31.5913   -5.5768   -7.2973 H         1 UNK         0.1406 
     83 H83        28.8434   -2.4263   -6.3048 H         1 UNK         0.1631 
     84 H84        29.5072   -5.5738   -8.3576 H         1 UNK         0.0717 
     85 H85        29.2258   -3.9384   -8.8839 H         1 UNK         0.0717 
     86 H86        27.5314   -2.4120   -7.9675 H         1 UNK         0.0934 
     87 H87        26.3829   -3.2235   -8.9700 H         1 UNK         0.0934 
     88 H88        24.6746   -3.2658   -7.2817 H         1 UNK         0.0739 
     89 H89        26.2175   -1.9569   -5.1658 H         1 UNK         0.3093 
     90 H90        25.0232   -4.4529   -2.8163 H         1 UNK         0.0818 
     91 H91        27.4445   -4.6235   -3.1325 H         1 UNK         0.0819 
     92 H92        27.6013   -2.8987   -3.3821 H         1 UNK         0.0819 
     93 H93        27.1136   -3.5211   -1.8072 H         1 UNK         0.0819 
     94 H94        25.4696   -1.5374   -2.9000 H         1 UNK         0.3041 
     95 H95        22.1078   -0.7107   -2.9220 H         1 UNK         0.0784 
     96 H96        21.8305   -1.4807   -0.6080 H         1 UNK         0.0793 
     97 H97        23.4425   -0.9412   -0.1752 H         1 UNK         0.0793 
     98 H98        22.2023    0.2351   -0.6048 H         1 UNK         0.0793 
     99 H99        24.5888    0.5121   -1.9036 H         1 UNK         0.3024 
    100 H100       25.6119    1.6215   -5.0905 H         1 UNK         0.1171 
    101 H101       25.4670    3.9545   -4.1563 H         1 UNK         0.0786 
    102 H102       23.9036    3.3868   -4.7178 H         1 UNK         0.0786 
    103 H103       24.2569    3.4136   -2.9958 H         1 UNK         0.0786 
    104 H104       26.4845    2.3696   -2.4797 H         1 UNK         0.2977 
    105 H105       23.7433   -1.7369   -8.5742 H         1 UNK         0.3127 
    106 H106       23.4403    0.8743   -7.6387 H         1 UNK         0.0770 
    107 H107       22.7918   -0.2915  -10.4019 H         1 UNK         0.0814 
    108 H108       22.1312    1.2010   -9.7494 H         1 UNK         0.0814 
    109 H109       21.7395   -0.3281   -8.9849 H         1 UNK         0.0814 
    110 H110       25.9749   -0.2827   -9.6664 H         1 UNK         0.2983 
    111 H111       26.7612    2.1347  -10.9796 H         1 UNK         0.0947 
    112 H112       28.9459    0.9325  -11.2391 H         1 UNK         0.0806 
    113 H113       27.5980   -0.1046  -11.6709 H         1 UNK         0.0806 
    114 H114       28.4105   -0.3119  -10.1187 H         1 UNK         0.0806 
    115 H115       27.2119    0.9501   -7.7078 H         1 UNK         0.3000 
    116 H116       28.0069    1.6900   -5.8317 H         1 UNK         0.0850 
    117 H117       27.8278    4.0881   -5.3249 H         1 UNK         0.0810 
    118 H118       26.4881    3.6189   -6.3645 H         1 UNK         0.0810 
    119 H119       27.8522    4.5051   -7.0322 H         1 UNK         0.0810 
    120 H120       29.8299    3.3309   -8.4049 H         1 UNK         0.3040 
    121 H121       32.2145    3.7423   -6.7556 H         1 UNK         0.0766 
    122 H122       31.4622    5.4309   -8.4303 H         1 UNK         0.0812 
    123 H123       31.6789    4.2608   -9.7317 H         1 UNK         0.0812 
    124 H124       33.0680    4.8429   -8.8234 H         1 UNK         0.0812 
    125 H125       31.0936    0.9932   -8.1786 H         1 UNK         0.3205 
    126 H126       33.3275   -0.1014   -9.5630 H         1 UNK         0.0754 
    127 H127       31.0880   -1.0709   -9.8123 H         1 UNK         0.0769 
    128 H128       30.9842   -1.4060   -8.0865 H         1 UNK         0.0769 
    129 H129       32.1194   -2.2961   -9.0883 H         1 UNK         0.0769 
    130 H130       34.9349   -1.5119   -8.9212 H         1 UNK         0.2981 
    131 H131       36.6255   -2.2542   -7.7608 H         1 UNK         0.0541 
    132 H132       35.8054    0.8733   -7.4323 H         1 UNK         0.3459 
    133 H133       37.0969    1.3567   -6.3628 H         1 UNK         0.3459 
    134 H134       36.3794   -3.1980   -5.4591 H         1 UNK         0.0612 
    135 H135       34.8040   -2.4713   -5.3194 H         1 UNK         0.0612 
    136 H136       33.9633   -4.7168   -4.5820 H         1 UNK         0.0624 
    137 H137       33.4430   -5.9731   -5.6727 H         1 UNK         0.0624 
@<TRIPOS>BOND
     1    1    2 1    
     2    1   72 1    
     3    1   73 1    
     4    1   74 1    
     5    2    3 2    
     6    2    4 am   BACKBONE|DICT|INTERRES
     7    4    5 1    
     8    4   75 1    
     9    5    6 1    
    10    5   35 1    
    11    5   76 1    
    12    6    7 1    
    13    6   77 1    
    14    6   78 1    
    15    7    8 1    
    16    8    9 1    
    17    8   79 1    
    18    8   80 1    
    19    9   10 ar   
    20    9   14 ar   
    21   10   11 ar   
    22   10   81 1    
    23   11   12 ar   
    24   11   71 1    
    25   12   13 ar   
    26   12   82 1    
    27   13   14 ar   
    28   13   15 1    
    29   14   83 1    
    30   15   16 1    
    31   15   84 1    
    32   15   85 1    
    33   16   17 1    
    34   17   18 1    
    35   17   86 1    
    36   17   87 1    
    37   18   19 1    
    38   18   37 1    
    39   18   88 1    
    40   19   20 am   BACKBONE|DICT|INTERRES
    41   19   89 1    
    42   20   21 2    
    43   20   22 1    
    44   22   23 1    
    45   22   24 1    
    46   22   90 1    
    47   23   91 1    
    48   23   92 1    
    49   23   93 1    
    50   24   25 am   BACKBONE|DICT|INTERRES
    51   24   94 1    
    52   25   26 2    
    53   25   27 1    
    54   27   28 1    
    55   27   29 1    
    56   27   95 1    
    57   28   96 1    
    58   28   97 1    
    59   28   98 1    
    60   29   30 am   BACKBONE|DICT|INTERRES
    61   29   99 1    
    62   30   31 2    
    63   30   32 1    
    64   32   33 1    
    65   32   34 1    
    66   32  100 1    
    67   33  101 1    
    68   33  102 1    
    69   33  103 1    
    70   34   35 am   BACKBONE|DICT|INTERRES
    71   34  104 1    
    72   35   36 2    
    73   37   38 2    
    74   37   39 am   BACKBONE|DICT|INTERRES
    75   39   40 1    
    76   39  105 1    
    77   40   41 1    
    78   40   42 1    
    79   40  106 1    
    80   41  107 1    
    81   41  108 1    
    82   41  109 1    
    83   42   43 2    
    84   42   44 am   BACKBONE|DICT|INTERRES
    85   44   45 1    
    86   44  110 1    
    87   45   46 1    
    88   45   47 1    
    89   45  111 1    
    90   46  112 1    
    91   46  113 1    
    92   46  114 1    
    93   47   48 2    
    94   47   49 am   BACKBONE|DICT|INTERRES
    95   49   50 1    
    96   49  115 1    
    97   50   51 1    
    98   50   52 1    
    99   50  116 1    
   100   51  117 1    
   101   51  118 1    
   102   51  119 1    
   103   52   53 2    
   104   52   54 am   BACKBONE|DICT|INTERRES
   105   54   55 1    
   106   54  120 1    
   107   55   56 1    
   108   55   57 1    
   109   55  121 1    
   110   56  122 1    
   111   56  123 1    
   112   56  124 1    
   113   57   58 2    
   114   57   59 am   BACKBONE|DICT|INTERRES
   115   59   60 1    
   116   59  125 1    
   117   60   61 1    
   118   60   62 1    
   119   60  126 1    
   120   61  127 1    
   121   61  128 1    
   122   61  129 1    
   123   62   63 2    
   124   62   64 am   BACKBONE|DICT|INTERRES
   125   64   65 1    
   126   64  130 1    
   127   65   66 1    
   128   65   69 1    
   129   65  131 1    
   130   66   67 am   BACKBONE|DICT|INTERRES
   131   66   68 2    
   132   67  132 1    
   133   67  133 1    
   134   69   70 1    
   135   69  134 1    
   136   69  135 1    
   137   70   71 1    
   138   71  136 1    
   139   71  137 1    
@<TRIPOS>SUBSTRUCTURE
     1 UNK         1 GROUP             0       ****    0 ROOT    
