@<TRIPOS>MOLECULE
3R137
137   139    1
SMALL
USER_CHARGES


@<TRIPOS>ATOM
      1 CA         26.8198   -1.7732    0.5394 C.3       0 UNK        -0.2020 
      2 C          26.7916   -3.2808    0.7808 C.2       0 UNK         0.4855 
      3 O          26.5435   -3.7065    1.9066 O.2       0 UNK        -0.5197 
      4 N          27.0326   -4.1289   -0.2303 N.am      1 UNK        -0.4892 
      5 CA         27.3273   -3.7853   -1.6304 C.3       1 UNK         0.0835 
      6 C6         28.0655   -4.9283   -2.3740 C.3       12 UNK        -0.0855 
      7 S7         29.6384   -5.4022   -1.5749 S.3       12 UNK        -0.2931 
      8 C8         30.8849   -4.8827   -2.8131 C.3       12 UNK         0.0378 
      9 C9         31.1470   -3.3769   -2.9225 C.ar      12 UNK        -0.0802 
     10 C10        31.8838   -2.9048   -4.0158 C.ar      12 UNK        -0.0944 
     11 C11        32.1907   -1.5458   -4.1408 C.ar      12 UNK        -0.0787 
     12 C12        31.7277   -0.6450   -3.1795 C.ar      12 UNK        -0.0862 
     13 C13        30.9793   -1.0947   -2.0900 C.ar      12 UNK        -0.0733 
     14 C14        30.7182   -2.4608   -1.9526 C.ar      12 UNK        -0.0832 
     15 C15        30.4653   -0.1107   -1.0481 C.3       12 UNK         0.0240 
     16 S16        29.3572    1.1590   -1.7481 S.3       12 UNK        -0.2522 
     17 C17        28.1018    0.1937   -2.6657 C.3       12 UNK        -0.0967 
     18 CA         28.1468    0.4342   -4.1981 C.3       5 UNK         0.0660 
     19 N          27.3143   -0.5333   -4.9228 N.am      5 UNK        -0.4015 
     20 C          27.2361   -0.6362   -6.2581 C.2       4 UNK         0.4946 
     21 O          27.9181    0.0184   -7.0447 O.2       4 UNK        -0.5353 
     22 CA         26.1651   -1.5813   -6.8227 C.3       4 UNK         0.0277 
     23 CB         26.6885   -3.0252   -6.9106 C.3       4 UNK        -0.1981 
     24 N          24.9068   -1.5400   -6.0709 N.am      4 UNK        -0.4209 
     25 C          24.1254   -0.4548   -5.9413 C.2       3 UNK         0.4942 
     26 O          24.3965    0.6369   -6.4393 O.2       3 UNK        -0.5208 
     27 CA         22.8287   -0.5904   -5.1219 C.3       3 UNK         0.0250 
     28 CB         21.6107   -0.6491   -6.0578 C.3       3 UNK        -0.1990 
     29 N          22.8282   -1.7707   -4.2560 N.am      3 UNK        -0.4232 
     30 C          23.4622   -1.8479   -3.0786 C.2       2 UNK         0.4993 
     31 O          23.9909   -0.8809   -2.5248 O.2       2 UNK        -0.5286 
     32 CA         23.5551   -3.2454   -2.4244 C.3       2 UNK         0.0209 
     33 CB         23.1535   -4.4055   -3.3651 C.3       2 UNK        -0.1931 
     34 N          24.8789   -3.5300   -1.8514 N.am      2 UNK        -0.4546 
     35 C          26.0798   -3.3504   -2.4271 C.2       1 UNK         0.5154 
     36 O          26.2418   -2.8546   -3.5423 O.2       1 UNK        -0.5181 
     37 C          27.7750    1.8907   -4.5572 C.2       5 UNK         0.5014 
     38 O          28.6630    2.6867   -4.8655 O.2       5 UNK        -0.5248 
     39 N          26.4704    2.2046   -4.5327 N.am      6 UNK        -0.4434 
     40 CA         25.9293    3.5318   -4.8413 C.3       6 UNK         0.0363 
     41 CB         24.4483    3.5937   -4.4336 C.3       6 UNK        -0.1936 
     42 C          26.1068    3.9209   -6.3185 C.2       6 UNK         0.5081 
     43 O          26.4355    5.0714   -6.6086 O.2       6 UNK        -0.5248 
     44 N          25.9063    2.9526   -7.2212 N.am      7 UNK        -0.4718 
     45 CA         26.1103    3.0995   -8.6643 C.3       7 UNK         0.0273 
     46 CB         25.3895    1.9453   -9.3807 C.3       7 UNK        -0.1935 
     47 C          27.5932    3.1342   -9.0801 C.2       7 UNK         0.5018 
     48 O          27.8842    3.5621  -10.1977 O.2       7 UNK        -0.5186 
     49 N          28.4857    2.6530   -8.2004 N.am      8 UNK        -0.4240 
     50 CA         29.9120    2.3820   -8.4216 C.3       8 UNK         0.0235 
     51 CB         30.6960    3.6871   -8.6769 C.3       8 UNK        -0.2000 
     52 C          30.1362    1.3133   -9.5121 C.2       8 UNK         0.4941 
     53 O          31.0906    1.4078  -10.2882 O.2       8 UNK        -0.5273 
     54 N          29.2375    0.3198   -9.5611 N.am      9 UNK        -0.4262 
     55 CA         29.1786   -0.7287  -10.5778 C.3       9 UNK         0.0264 
     56 CB         27.8473   -1.4874  -10.4527 C.3       9 UNK        -0.1955 
     57 C          30.3867   -1.6698  -10.4688 C.2       9 UNK         0.5031 
     58 O          30.4406   -2.4900   -9.5508 O.2       9 UNK        -0.5390 
     59 N          31.3409   -1.4937  -11.3939 N.am      10 UNK        -0.4204 
     60 CA         32.6514   -2.1532  -11.4639 C.3       10 UNK         0.0237 
     61 CB         32.5033   -3.6771  -11.6673 C.3       10 UNK        -0.1985 
     62 C          33.5931   -1.7965  -10.2933 C.2       10 UNK         0.4970 
     63 O          34.5588   -2.5247  -10.0566 O.2       10 UNK        -0.4914 
     64 N          33.3262   -0.6788   -9.6026 N.am      11 UNK        -0.4285 
     65 CA         34.1665   -0.1561   -8.5133 C.3       11 UNK         0.1007 
     66 C          35.4013    0.6556   -9.0032 C.2       11 UNK         0.5703 
     67 N          35.5200    0.9886  -10.2836 N.am      11 UNK        -0.7361 
     68 O          36.2782    0.9783   -8.2053 O.2       11 UNK        -0.4986 
     69 C69        33.3385    0.6549   -7.4833 C.3       12 UNK        -0.0947 
     70 S70        32.0663   -0.3417   -6.6353 S.3       12 UNK        -0.2240 
     71 C71        33.0590   -1.0444   -5.2836 C.3       12 UNK         0.0194 
     72 H72        26.6433   -1.2365    1.4714 H         1 UNK         0.0906 
     73 H73        27.7883   -1.4547    0.1598 H         1 UNK         0.0906 
     74 H74        26.0461   -1.4681   -0.1645 H         1 UNK         0.0906 
     75 H75        27.0346   -5.1197   -0.0298 H         1 UNK         0.3140 
     76 H76        27.9900   -2.9245   -1.6341 H         1 UNK         0.1085 
     77 H77        28.2710   -4.6422   -3.4080 H         1 UNK         0.0836 
     78 H78        27.4336   -5.8168   -2.4301 H         1 UNK         0.0836 
     79 H79        30.5942   -5.2763   -3.7884 H         1 UNK         0.0731 
     80 H80        31.8282   -5.3681   -2.5593 H         1 UNK         0.0731 
     81 H81        32.2416   -3.6016   -4.7618 H         1 UNK         0.1312 
     82 H82        31.9507    0.4089   -3.2783 H         1 UNK         0.1406 
     83 H83        30.1851   -2.8040   -1.0786 H         1 UNK         0.1631 
     84 H84        31.3171    0.3880   -0.5839 H         1 UNK         0.0717 
     85 H85        29.9444   -0.6290   -0.2430 H         1 UNK         0.0717 
     86 H86        28.2591   -0.8630   -2.4633 H         1 UNK         0.0934 
     87 H87        27.1148    0.4269   -2.2611 H         1 UNK         0.0934 
     88 H88        29.1727    0.2687   -4.5356 H         1 UNK         0.0739 
     89 H89        26.7554   -1.1762   -4.3681 H         1 UNK         0.3093 
     90 H90        25.9442   -1.2438   -7.8373 H         1 UNK         0.0818 
     91 H91        25.9944   -3.6647   -7.4557 H         1 UNK         0.0819 
     92 H92        27.6450   -3.0659   -7.4332 H         1 UNK         0.0819 
     93 H93        26.8486   -3.4671   -5.9283 H         1 UNK         0.0819 
     94 H94        24.6471   -2.3835   -5.5815 H         1 UNK         0.3041 
     95 H95        22.7385    0.3046   -4.5021 H         1 UNK         0.0784 
     96 H96        21.6422   -1.5222   -6.7108 H         1 UNK         0.0793 
     97 H97        21.5679    0.2341   -6.6971 H         1 UNK         0.0793 
     98 H98        20.6783   -0.6835   -5.4939 H         1 UNK         0.0793 
     99 H99        22.4009   -2.6069   -4.6283 H         1 UNK         0.3024 
    100 H100       22.8508   -3.2298   -1.5908 H         1 UNK         0.1171 
    101 H101       23.2313   -5.3652   -2.8538 H         1 UNK         0.0786 
    102 H102       22.1189   -4.3165   -3.6990 H         1 UNK         0.0786 
    103 H103       23.7929   -4.4552   -4.2477 H         1 UNK         0.0786 
    104 H104       24.8754   -3.9199   -0.9190 H         1 UNK         0.2977 
    105 H105       25.8006    1.4806   -4.3170 H         1 UNK         0.3127 
    106 H106       26.4767    4.2616   -4.2407 H         1 UNK         0.0770 
    107 H107       23.8423    2.8794   -4.9919 H         1 UNK         0.0814 
    108 H108       24.0354    4.5857   -4.6216 H         1 UNK         0.0814 
    109 H109       24.3191    3.3864   -3.3712 H         1 UNK         0.0814 
    110 H110       25.5577    2.0519   -6.8983 H         1 UNK         0.2983 
    111 H111       25.6585    4.0412   -8.9836 H         1 UNK         0.0947 
    112 H112       25.4903    2.0299  -10.4636 H         1 UNK         0.0806 
    113 H113       24.3234    1.9409   -9.1527 H         1 UNK         0.0806 
    114 H114       25.7968    0.9767   -9.0885 H         1 UNK         0.0806 
    115 H115       28.1169    2.2883   -7.3303 H         1 UNK         0.3000 
    116 H116       30.2797    1.9503   -7.4899 H         1 UNK         0.0850 
    117 H117       31.7695    3.5010   -8.7114 H         1 UNK         0.0810 
    118 H118       30.5192    4.4150   -7.8851 H         1 UNK         0.0810 
    119 H119       30.4198    4.1478   -9.6256 H         1 UNK         0.0810 
    120 H120       28.5791    0.2494   -8.7878 H         1 UNK         0.3040 
    121 H121       29.1915   -0.2448  -11.5568 H         1 UNK         0.0766 
    122 H122       27.7512   -1.9700   -9.4816 H         1 UNK         0.0812 
    123 H123       27.7700   -2.2662  -11.2123 H         1 UNK         0.0812 
    124 H124       26.9951   -0.8203  -10.5824 H         1 UNK         0.0812 
    125 H125       31.1971   -0.7566  -12.0718 H         1 UNK         0.3205 
    126 H126       33.1344   -1.7545  -12.3571 H         1 UNK         0.0754 
    127 H127       31.8388   -3.9038  -12.5011 H         1 UNK         0.0769 
    128 H128       32.1071   -4.1690  -10.7785 H         1 UNK         0.0769 
    129 H129       33.4664   -4.1385  -11.8891 H         1 UNK         0.0769 
    130 H130       32.5275   -0.1117   -9.8622 H         1 UNK         0.2981 
    131 H131       34.5847   -1.0100   -7.9772 H         1 UNK         0.0541 
    132 H132       34.8054    0.7370  -10.9469 H         1 UNK         0.3459 
    133 H133       36.3289    1.5089  -10.5848 H         1 UNK         0.3459 
    134 H134       33.9842    1.1041   -6.7267 H         1 UNK         0.0612 
    135 H135       32.8435    1.4900   -7.9783 H         1 UNK         0.0612 
    136 H136       33.6777   -1.8515   -5.6786 H         1 UNK         0.0624 
    137 H137       33.7476   -0.2911   -4.8983 H         1 UNK         0.0624 
@<TRIPOS>BOND
     1    1    2 1    
     2    1   72 1    
     3    1   73 1    
     4    1   74 1    
     5    2    3 2    
     6    2    4 am   BACKBONE|DICT|INTERRES
     7    4    5 1    
     8    4   75 1    
     9    5    6 1    
    10    5   35 1    
    11    5   76 1    
    12    6    7 1    
    13    6   77 1    
    14    6   78 1    
    15    7    8 1    
    16    8    9 1    
    17    8   79 1    
    18    8   80 1    
    19    9   10 ar   
    20    9   14 ar   
    21   10   11 ar   
    22   10   81 1    
    23   11   12 ar   
    24   11   71 1    
    25   12   13 ar   
    26   12   82 1    
    27   13   14 ar   
    28   13   15 1    
    29   14   83 1    
    30   15   16 1    
    31   15   84 1    
    32   15   85 1    
    33   16   17 1    
    34   17   18 1    
    35   17   86 1    
    36   17   87 1    
    37   18   19 1    
    38   18   37 1    
    39   18   88 1    
    40   19   20 am   BACKBONE|DICT|INTERRES
    41   19   89 1    
    42   20   21 2    
    43   20   22 1    
    44   22   23 1    
    45   22   24 1    
    46   22   90 1    
    47   23   91 1    
    48   23   92 1    
    49   23   93 1    
    50   24   25 am   BACKBONE|DICT|INTERRES
    51   24   94 1    
    52   25   26 2    
    53   25   27 1    
    54   27   28 1    
    55   27   29 1    
    56   27   95 1    
    57   28   96 1    
    58   28   97 1    
    59   28   98 1    
    60   29   30 am   BACKBONE|DICT|INTERRES
    61   29   99 1    
    62   30   31 2    
    63   30   32 1    
    64   32   33 1    
    65   32   34 1    
    66   32  100 1    
    67   33  101 1    
    68   33  102 1    
    69   33  103 1    
    70   34   35 am   BACKBONE|DICT|INTERRES
    71   34  104 1    
    72   35   36 2    
    73   37   38 2    
    74   37   39 am   BACKBONE|DICT|INTERRES
    75   39   40 1    
    76   39  105 1    
    77   40   41 1    
    78   40   42 1    
    79   40  106 1    
    80   41  107 1    
    81   41  108 1    
    82   41  109 1    
    83   42   43 2    
    84   42   44 am   BACKBONE|DICT|INTERRES
    85   44   45 1    
    86   44  110 1    
    87   45   46 1    
    88   45   47 1    
    89   45  111 1    
    90   46  112 1    
    91   46  113 1    
    92   46  114 1    
    93   47   48 2    
    94   47   49 am   BACKBONE|DICT|INTERRES
    95   49   50 1    
    96   49  115 1    
    97   50   51 1    
    98   50   52 1    
    99   50  116 1    
   100   51  117 1    
   101   51  118 1    
   102   51  119 1    
   103   52   53 2    
   104   52   54 am   BACKBONE|DICT|INTERRES
   105   54   55 1    
   106   54  120 1    
   107   55   56 1    
   108   55   57 1    
   109   55  121 1    
   110   56  122 1    
   111   56  123 1    
   112   56  124 1    
   113   57   58 2    
   114   57   59 am   BACKBONE|DICT|INTERRES
   115   59   60 1    
   116   59  125 1    
   117   60   61 1    
   118   60   62 1    
   119   60  126 1    
   120   61  127 1    
   121   61  128 1    
   122   61  129 1    
   123   62   63 2    
   124   62   64 am   BACKBONE|DICT|INTERRES
   125   64   65 1    
   126   64  130 1    
   127   65   66 1    
   128   65   69 1    
   129   65  131 1    
   130   66   67 am   BACKBONE|DICT|INTERRES
   131   66   68 2    
   132   67  132 1    
   133   67  133 1    
   134   69   70 1    
   135   69  134 1    
   136   69  135 1    
   137   70   71 1    
   138   71  136 1    
   139   71  137 1    
@<TRIPOS>SUBSTRUCTURE
     1 UNK         1 GROUP             0       ****    0 ROOT    
