@<TRIPOS>MOLECULE
3R137
137   139    1
SMALL
USER_CHARGES


@<TRIPOS>ATOM
      1 CA         26.9661   -6.6488    0.7418 C.3       0 UNK        -0.2020 
      2 C          26.8379   -5.1434    0.9198 C.2       0 UNK         0.4855 
      3 O          26.0210   -4.6888    1.7209 O.2       0 UNK        -0.5197 
      4 N          27.6415   -4.3681    0.1801 N.am      1 UNK        -0.4892 
      5 CA         27.6486   -2.8990    0.2081 C.3       1 UNK         0.0835 
      6 C6         28.9228   -2.3129   -0.4497 C.3       12 UNK        -0.0855 
      7 S7         30.4521   -2.6989    0.4779 S.3       12 UNK        -0.2931 
      8 C8         31.0890   -4.2185   -0.3093 C.3       12 UNK         0.0378 
      9 C9         31.3819   -4.0333   -1.7909 C.ar      12 UNK        -0.0802 
     10 C10        32.5424   -3.3737   -2.2093 C.ar      12 UNK        -0.0944 
     11 C11        32.8067   -3.1756   -3.5697 C.ar      12 UNK        -0.0787 
     12 C12        31.8862   -3.6576   -4.5111 C.ar      12 UNK        -0.0862 
     13 C13        30.7105   -4.2923   -4.1041 C.ar      12 UNK        -0.0733 
     14 C14        30.4793   -4.5072   -2.7455 C.ar      12 UNK        -0.0832 
     15 C15        29.6542   -4.6785   -5.1294 C.3       12 UNK         0.0240 
     16 S16        28.1352   -3.6863   -4.9284 S.3       12 UNK        -0.2522 
     17 C17        28.7557   -1.9717   -5.0831 C.3       12 UNK        -0.0967 
     18 CA         28.2459   -1.2682   -6.3589 C.3       5 UNK         0.0660 
     19 N          26.7854   -1.2029   -6.4259 N.am      5 UNK        -0.4015 
     20 C          26.1045   -0.8419   -7.5229 C.2       4 UNK         0.4946 
     21 O          26.6459   -0.5519   -8.5918 O.2       4 UNK        -0.5353 
     22 CA         24.5737   -0.7341   -7.4091 C.3       4 UNK         0.0277 
     23 CB         23.9143   -2.0393   -7.8796 C.3       4 UNK        -0.1981 
     24 N          24.0940   -0.4018   -6.0633 N.am      4 UNK        -0.4209 
     25 C          24.4194    0.7029   -5.3752 C.2       3 UNK         0.4942 
     26 O          25.1574    1.5872   -5.8088 O.2       3 UNK        -0.5208 
     27 CA         23.8914    0.8069   -3.9346 C.3       3 UNK         0.0250 
     28 CB         22.5011    1.4612   -3.9190 C.3       3 UNK        -0.1990 
     29 N          23.8450   -0.4741   -3.2162 N.am      3 UNK        -0.4232 
     30 C          24.8980   -1.2807   -3.0174 C.2       2 UNK         0.4993 
     31 O          26.0169   -1.0734   -3.4907 O.2       2 UNK        -0.5286 
     32 CA         24.6430   -2.5601   -2.2034 C.3       2 UNK         0.0209 
     33 CB         24.2178   -3.7049   -3.1379 C.3       2 UNK        -0.1931 
     34 N          25.8262   -2.9816   -1.4486 N.am      2 UNK        -0.4546 
     35 C          26.3796   -2.2975   -0.4355 C.2       1 UNK         0.5154 
     36 O          25.9180   -1.2453    0.0104 O.2       1 UNK        -0.5181 
     37 C          28.8931    0.1240   -6.5097 C.2       5 UNK         0.5014 
     38 O          29.9865    0.2171   -7.0660 O.2       5 UNK        -0.5248 
     39 N          28.2076    1.1777   -6.0467 N.am      6 UNK        -0.4434 
     40 CA         28.6247    2.5661   -6.2248 C.3       6 UNK         0.0363 
     41 CB         28.2161    3.3847   -4.9893 C.3       6 UNK        -0.1936 
     42 C          28.0145    3.1683   -7.4987 C.2       6 UNK         0.5081 
     43 O          28.7260    3.8283   -8.2540 O.2       6 UNK        -0.5248 
     44 N          26.7090    2.9513   -7.7076 N.am      7 UNK        -0.4718 
     45 CA         25.9277    3.5914   -8.7667 C.3       7 UNK         0.0273 
     46 CB         24.4300    3.4670   -8.4430 C.3       7 UNK        -0.1935 
     47 C          26.2171    3.0619  -10.1793 C.2       7 UNK         0.5018 
     48 O          26.2148    3.8602  -11.1178 O.2       7 UNK        -0.5186 
     49 N          26.4309    1.7461  -10.3173 N.am      8 UNK        -0.4240 
     50 CA         26.6320    1.0831  -11.6071 C.3       8 UNK         0.0235 
     51 CB         25.6299   -0.0746  -11.7664 C.3       8 UNK        -0.2000 
     52 C          28.0743    0.5911  -11.7628 C.2       8 UNK         0.4941 
     53 O          28.7004    0.8976  -12.7782 O.2       8 UNK        -0.5273 
     54 N          28.5805   -0.1652  -10.7763 N.am      9 UNK        -0.4262 
     55 CA         29.9161   -0.7747  -10.8446 C.3       9 UNK         0.0264 
     56 CB         30.0029   -1.9696   -9.8823 C.3       9 UNK        -0.1955 
     57 C          31.0652    0.2170  -10.5845 C.2       9 UNK         0.5031 
     58 O          32.1775   -0.0324  -11.0517 O.2       9 UNK        -0.5390 
     59 N          30.7819    1.3056   -9.8518 N.am      10 UNK        -0.4204 
     60 CA         31.7073    2.3729   -9.4453 C.3       10 UNK         0.0237 
     61 CB         32.1413    3.2109  -10.6670 C.3       10 UNK        -0.1985 
     62 C          32.8971    1.8655   -8.6038 C.2       10 UNK         0.4970 
     63 O          34.0254    2.3274   -8.7875 O.2       10 UNK        -0.4914 
     64 N          32.6229    0.9174   -7.7006 N.am      11 UNK        -0.4285 
     65 CA         33.5926    0.3317   -6.7690 C.3       11 UNK         0.1007 
     66 C          34.0114    1.3233   -5.6483 C.2       11 UNK         0.5703 
     67 N          35.2378    1.2204   -5.1545 N.am      11 UNK        -0.7361 
     68 O          33.2290    2.1614   -5.2026 O.2       11 UNK        -0.4986 
     69 C69        33.0468   -1.0010   -6.1947 C.3       12 UNK        -0.0947 
     70 S70        34.3719   -2.1748   -5.7466 S.3       12 UNK        -0.2240 
     71 C71        34.0781   -2.4113   -3.9570 C.3       12 UNK         0.0194 
     72 H72        27.2293   -7.1171    1.6899 H         1 UNK         0.0906 
     73 H73        26.0181   -7.0686    0.4064 H         1 UNK         0.0906 
     74 H74        27.7306   -6.9117    0.0110 H         1 UNK         0.0906 
     75 H75        28.3014   -4.7986   -0.4483 H         1 UNK         0.3140 
     76 H76        27.6392   -2.5882    1.2556 H         1 UNK         0.1085 
     77 H77        28.8546   -1.2235   -0.4842 H         1 UNK         0.0836 
     78 H78        29.0074   -2.6259   -1.4902 H         1 UNK         0.0836 
     79 H79        32.0058   -4.5157    0.2022 H         1 UNK         0.0731 
     80 H80        30.3847   -5.0359   -0.1518 H         1 UNK         0.0731 
     81 H81        33.2353   -2.9980   -1.4684 H         1 UNK         0.1312 
     82 H82        32.0495   -3.5113   -5.5679 H         1 UNK         0.1406 
     83 H83        29.5688   -5.0011   -2.4368 H         1 UNK         0.1631 
     84 H84        29.4087   -5.7354   -5.0180 H         1 UNK         0.0717 
     85 H85        30.0282   -4.5523   -6.1467 H         1 UNK         0.0717 
     86 H86        28.4624   -1.4195   -4.1891 H         1 UNK         0.0934 
     87 H87        29.8452   -1.9688   -5.0787 H         1 UNK         0.0934 
     88 H88        28.5706   -1.8678   -7.2095 H         1 UNK         0.0739 
     89 H89        26.2941   -1.3821   -5.5570 H         1 UNK         0.3093 
     90 H90        24.2569    0.0671   -8.0786 H         1 UNK         0.0818 
     91 H91        22.8280   -1.9507   -7.9024 H         1 UNK         0.0819 
     92 H92        24.2368   -2.2964   -8.8899 H         1 UNK         0.0819 
     93 H93        24.1712   -2.8788   -7.2321 H         1 UNK         0.0819 
     94 H94        23.4891   -1.0758   -5.6173 H         1 UNK         0.3041 
     95 H95        24.5790    1.4567   -3.3890 H         1 UNK         0.0784 
     96 H96        22.5173    2.4234   -4.4334 H         1 UNK         0.0793 
     97 H97        21.7543    0.8394   -4.4145 H         1 UNK         0.0793 
     98 H98        22.1611    1.6481   -2.9001 H         1 UNK         0.0793 
     99 H99        22.9552   -0.7274   -2.8102 H         1 UNK         0.3024 
    100 H100       23.8411   -2.3662   -1.4873 H         1 UNK         0.1171 
    101 H101       23.3155   -3.4458   -3.6934 H         1 UNK         0.0786 
    102 H102       24.0000   -4.6147   -2.5780 H         1 UNK         0.0786 
    103 H103       24.9945   -3.9379   -3.8681 H         1 UNK         0.0786 
    104 H104       26.2850   -3.8246   -1.7590 H         1 UNK         0.2977 
    105 H105       27.2896    1.0277   -5.6463 H         1 UNK         0.3127 
    106 H106       29.7125    2.6195   -6.3139 H         1 UNK         0.0770 
    107 H107       27.1372    3.3708   -4.8286 H         1 UNK         0.0814 
    108 H108       28.5169    4.4278   -5.0965 H         1 UNK         0.0814 
    109 H109       28.6932    3.0015   -4.0872 H         1 UNK         0.0814 
    110 H110       26.1821    2.4158   -7.0187 H         1 UNK         0.2983 
    111 H111       26.1793    4.6546   -8.7650 H         1 UNK         0.0947 
    112 H112       23.8239    3.9771   -9.1930 H         1 UNK         0.0806 
    113 H113       24.1946    3.9148   -7.4772 H         1 UNK         0.0806 
    114 H114       24.1067    2.4266   -8.4152 H         1 UNK         0.0806 
    115 H115       26.4472    1.1491   -9.4958 H         1 UNK         0.3000 
    116 H116       26.4432    1.7807  -12.4261 H         1 UNK         0.0850 
    117 H117       25.7427   -0.5530  -12.7402 H         1 UNK         0.0810 
    118 H118       24.6022    0.2823  -11.6992 H         1 UNK         0.0810 
    119 H119       25.7632   -0.8478  -11.0102 H         1 UNK         0.0810 
    120 H120       27.9937   -0.3914   -9.9765 H         1 UNK         0.3040 
    121 H121       30.0506   -1.1653  -11.8560 H         1 UNK         0.0766 
    122 H122       30.8947   -2.5625  -10.0891 H         1 UNK         0.0812 
    123 H123       29.1424   -2.6320   -9.9783 H         1 UNK         0.0812 
    124 H124       30.0745   -1.6483   -8.8463 H         1 UNK         0.0812 
    125 H125       29.8427    1.3837   -9.4882 H         1 UNK         0.3205 
    126 H126       31.1447    3.0308   -8.7836 H         1 UNK         0.0754 
    127 H127       32.7248    4.0795  -10.3594 H         1 UNK         0.0769 
    128 H128       31.2769    3.5819  -11.2181 H         1 UNK         0.0769 
    129 H129       32.7564    2.6325  -11.3571 H         1 UNK         0.0769 
    130 H130       31.6532    0.6352   -7.5639 H         1 UNK         0.2981 
    131 H131       34.4818    0.1077   -7.3621 H         1 UNK         0.0541 
    132 H132       35.5260    1.8476   -4.4202 H         1 UNK         0.3459 
    133 H133       35.8766    0.5198   -5.4972 H         1 UNK         0.3459 
    134 H134       32.4375   -1.5077   -6.9453 H         1 UNK         0.0612 
    135 H135       32.3796   -0.8239   -5.3487 H         1 UNK         0.0612 
    136 H136       34.9374   -2.9440   -3.5474 H         1 UNK         0.0624 
    137 H137       34.0657   -1.4314   -3.4772 H         1 UNK         0.0624 
@<TRIPOS>BOND
     1    1    2 1    
     2    1   72 1    
     3    1   73 1    
     4    1   74 1    
     5    2    3 2    
     6    2    4 am   BACKBONE|DICT|INTERRES
     7    4    5 1    
     8    4   75 1    
     9    5    6 1    
    10    5   35 1    
    11    5   76 1    
    12    6    7 1    
    13    6   77 1    
    14    6   78 1    
    15    7    8 1    
    16    8    9 1    
    17    8   79 1    
    18    8   80 1    
    19    9   10 ar   
    20    9   14 ar   
    21   10   11 ar   
    22   10   81 1    
    23   11   12 ar   
    24   11   71 1    
    25   12   13 ar   
    26   12   82 1    
    27   13   14 ar   
    28   13   15 1    
    29   14   83 1    
    30   15   16 1    
    31   15   84 1    
    32   15   85 1    
    33   16   17 1    
    34   17   18 1    
    35   17   86 1    
    36   17   87 1    
    37   18   19 1    
    38   18   37 1    
    39   18   88 1    
    40   19   20 am   BACKBONE|DICT|INTERRES
    41   19   89 1    
    42   20   21 2    
    43   20   22 1    
    44   22   23 1    
    45   22   24 1    
    46   22   90 1    
    47   23   91 1    
    48   23   92 1    
    49   23   93 1    
    50   24   25 am   BACKBONE|DICT|INTERRES
    51   24   94 1    
    52   25   26 2    
    53   25   27 1    
    54   27   28 1    
    55   27   29 1    
    56   27   95 1    
    57   28   96 1    
    58   28   97 1    
    59   28   98 1    
    60   29   30 am   BACKBONE|DICT|INTERRES
    61   29   99 1    
    62   30   31 2    
    63   30   32 1    
    64   32   33 1    
    65   32   34 1    
    66   32  100 1    
    67   33  101 1    
    68   33  102 1    
    69   33  103 1    
    70   34   35 am   BACKBONE|DICT|INTERRES
    71   34  104 1    
    72   35   36 2    
    73   37   38 2    
    74   37   39 am   BACKBONE|DICT|INTERRES
    75   39   40 1    
    76   39  105 1    
    77   40   41 1    
    78   40   42 1    
    79   40  106 1    
    80   41  107 1    
    81   41  108 1    
    82   41  109 1    
    83   42   43 2    
    84   42   44 am   BACKBONE|DICT|INTERRES
    85   44   45 1    
    86   44  110 1    
    87   45   46 1    
    88   45   47 1    
    89   45  111 1    
    90   46  112 1    
    91   46  113 1    
    92   46  114 1    
    93   47   48 2    
    94   47   49 am   BACKBONE|DICT|INTERRES
    95   49   50 1    
    96   49  115 1    
    97   50   51 1    
    98   50   52 1    
    99   50  116 1    
   100   51  117 1    
   101   51  118 1    
   102   51  119 1    
   103   52   53 2    
   104   52   54 am   BACKBONE|DICT|INTERRES
   105   54   55 1    
   106   54  120 1    
   107   55   56 1    
   108   55   57 1    
   109   55  121 1    
   110   56  122 1    
   111   56  123 1    
   112   56  124 1    
   113   57   58 2    
   114   57   59 am   BACKBONE|DICT|INTERRES
   115   59   60 1    
   116   59  125 1    
   117   60   61 1    
   118   60   62 1    
   119   60  126 1    
   120   61  127 1    
   121   61  128 1    
   122   61  129 1    
   123   62   63 2    
   124   62   64 am   BACKBONE|DICT|INTERRES
   125   64   65 1    
   126   64  130 1    
   127   65   66 1    
   128   65   69 1    
   129   65  131 1    
   130   66   67 am   BACKBONE|DICT|INTERRES
   131   66   68 2    
   132   67  132 1    
   133   67  133 1    
   134   69   70 1    
   135   69  134 1    
   136   69  135 1    
   137   70   71 1    
   138   71  136 1    
   139   71  137 1    
@<TRIPOS>SUBSTRUCTURE
     1 UNK         1 GROUP             0       ****    0 ROOT    
