@<TRIPOS>MOLECULE
3R137
137   139    1
SMALL
USER_CHARGES


@<TRIPOS>ATOM
      1 CA         26.0238   -5.5817    1.8017 C.3       0 UNK        -0.2020 
      2 C          26.1278   -4.0887    2.0737 C.2       0 UNK         0.4855 
      3 O          25.5488   -3.6000    3.0439 O.2       0 UNK        -0.5197 
      4 N          26.8588   -3.3582    1.2217 N.am      1 UNK        -0.4892 
      5 CA         27.0589   -1.9050    1.3179 C.3       1 UNK         0.0835 
      6 C6         28.3272   -1.4604    0.5457 C.3       12 UNK        -0.0855 
      7 S7         28.2698   -1.8040   -1.2519 S.3       12 UNK        -0.2931 
      8 C8         29.8872   -2.5893   -1.5233 C.3       12 UNK         0.0378 
      9 C9         30.2667   -2.5462   -2.9948 C.ar      12 UNK        -0.0802 
     10 C10        31.0761   -1.5147   -3.4786 C.ar      12 UNK        -0.0944 
     11 C11        31.4222   -1.4583   -4.8313 C.ar      12 UNK        -0.0787 
     12 C12        30.9546   -2.4445   -5.7051 C.ar      12 UNK        -0.0862 
     13 C13        30.1437   -3.4803   -5.2319 C.ar      12 UNK        -0.0733 
     14 C14        29.8050   -3.5280   -3.8756 C.ar      12 UNK        -0.0832 
     15 C15        29.6332   -4.5553   -6.1768 C.3       12 UNK         0.0240 
     16 S16        27.9495   -4.1878   -6.7594 S.3       12 UNK        -0.2522 
     17 C17        28.2483   -3.1667   -8.2445 C.3       12 UNK        -0.0967 
     18 CA         27.5589   -1.7778   -8.2280 C.3       5 UNK         0.0660 
     19 N          26.1684   -1.8372   -7.7705 N.am      5 UNK        -0.4015 
     20 C          25.2817   -0.8344   -7.8291 C.2       4 UNK         0.4946 
     21 O          25.5254    0.2629   -8.3337 O.2       4 UNK        -0.5353 
     22 CA         23.9152   -1.0732   -7.1645 C.3       4 UNK         0.0277 
     23 CB         22.9010   -1.5810   -8.2012 C.3       4 UNK        -0.1981 
     24 N          23.9529   -1.9936   -6.0187 N.am      4 UNK        -0.4209 
     25 C          24.6734   -1.8009   -4.9043 C.2       3 UNK         0.4942 
     26 O          25.4475   -0.8553   -4.7438 O.2       3 UNK        -0.5208 
     27 CA         24.5518   -2.8695   -3.8097 C.3       3 UNK         0.0250 
     28 CB         25.7115   -3.8731   -3.9038 C.3       3 UNK        -0.1990 
     29 N          24.5741   -2.2513   -2.4860 N.am      3 UNK        -0.4232 
     30 C          23.5133   -1.6914   -1.8868 C.2       2 UNK         0.4993 
     31 O          22.3905   -1.6542   -2.3934 O.2       2 UNK        -0.5286 
     32 CA         23.7327   -1.1067   -0.4790 C.3       2 UNK         0.0209 
     33 CB         22.5002   -1.2743    0.4308 C.3       2 UNK        -0.1931 
     34 N          24.8965   -1.7230    0.1598 N.am      2 UNK        -0.4546 
     35 C          25.8229   -1.0835    0.8830 C.2       1 UNK         0.5154 
     36 O          25.7481    0.1084    1.1874 O.2       1 UNK        -0.5181 
     37 C          28.4058   -0.6968   -7.5236 C.2       5 UNK         0.5014 
     38 O          29.3561   -0.2101   -8.1394 O.2       5 UNK        -0.5248 
     39 N          28.0211   -0.2656   -6.3115 N.am      6 UNK        -0.4434 
     40 CA         28.6400    0.8687   -5.6184 C.3       6 UNK         0.0363 
     41 CB         28.0929    0.9671   -4.1872 C.3       6 UNK        -0.1936 
     42 C          28.4779    2.2077   -6.3618 C.2       6 UNK         0.5081 
     43 O          29.3237    3.0867   -6.1971 O.2       6 UNK        -0.5248 
     44 N          27.4231    2.3298   -7.1792 N.am      7 UNK        -0.4718 
     45 CA         27.1959    3.4596   -8.0772 C.3       7 UNK         0.0273 
     46 CB         25.7273    3.9041   -7.9725 C.3       7 UNK        -0.1935 
     47 C          27.5461    3.0906   -9.5264 C.2       7 UNK         0.5018 
     48 O          28.2160    3.8739  -10.1994 O.2       7 UNK        -0.5186 
     49 N          27.0685    1.9258   -9.9906 N.am      8 UNK        -0.4240 
     50 CA         27.1452    1.5040  -11.3913 C.3       8 UNK         0.0235 
     51 CB         26.1292    0.3786  -11.6482 C.3       8 UNK        -0.2000 
     52 C          28.5500    1.0836  -11.8518 C.2       8 UNK         0.4941 
     53 O          28.9221    1.4050  -12.9813 O.2       8 UNK        -0.5273 
     54 N          29.2945    0.3688  -10.9967 N.am      9 UNK        -0.4262 
     55 CA         30.6536   -0.0992  -11.2887 C.3       9 UNK         0.0264 
     56 CB         30.8216   -1.5536  -10.8156 C.3       9 UNK        -0.1955 
     57 C          31.7116    0.8002  -10.6362 C.2       9 UNK         0.5031 
     58 O          32.8107    0.9165  -11.1782 O.2       9 UNK        -0.5390 
     59 N          31.3861    1.3903   -9.4757 N.am      10 UNK        -0.4204 
     60 CA         32.1820    2.3224   -8.6592 C.3       10 UNK         0.0237 
     61 CB         32.5573    3.5894   -9.4528 C.3       10 UNK        -0.1985 
     62 C          33.4146    1.7052   -7.9677 C.2       10 UNK         0.4970 
     63 O          33.8350    2.2388   -6.9421 O.2       10 UNK        -0.4914 
     64 N          33.9332    0.5939   -8.5072 N.am      11 UNK        -0.4285 
     65 CA         34.9584   -0.3168   -7.9644 C.3       11 UNK         0.1007 
     66 C          36.3452    0.2988   -7.6001 C.2       11 UNK         0.5703 
     67 N          36.6589    1.5193   -8.0165 N.am      11 UNK        -0.7361 
     68 O          37.1752   -0.3595   -6.9770 O.2       11 UNK        -0.4986 
     69 C69        34.3859   -1.3161   -6.9112 C.3       12 UNK        -0.0947 
     70 S70        34.0420   -0.6231   -5.2569 S.3       12 UNK        -0.2240 
     71 C71        32.2544   -0.2980   -5.3507 C.3       12 UNK         0.0194 
     72 H72        26.5793   -5.8748    0.9110 H         1 UNK         0.0906 
     73 H73        26.4181   -6.1449    2.6472 H         1 UNK         0.0906 
     74 H74        24.9814   -5.8657    1.6599 H         1 UNK         0.0906 
     75 H75        27.3208   -3.8062    0.4423 H         1 UNK         0.3140 
     76 H76        27.2207   -1.6638    2.3713 H         1 UNK         0.1085 
     77 H77        29.1977   -1.9520    0.9827 H         1 UNK         0.0836 
     78 H78        28.5017   -0.3913    0.6832 H         1 UNK         0.0836 
     79 H79        29.8581   -3.6203   -1.1674 H         1 UNK         0.0731 
     80 H80        30.6488   -2.0781   -0.9321 H         1 UNK         0.0731 
     81 H81        31.4267   -0.7457   -2.8037 H         1 UNK         0.1312 
     82 H82        31.2076   -2.3957   -6.7549 H         1 UNK         0.1406 
     83 H83        29.1714   -4.3236   -3.5074 H         1 UNK         0.1631 
     84 H84        29.6170   -5.5144   -5.6570 H         1 UNK         0.0717 
     85 H85        30.3091   -4.6865   -7.0231 H         1 UNK         0.0717 
     86 H86        29.3194   -3.0709   -8.4293 H         1 UNK         0.0934 
     87 H87        27.8680   -3.7359   -9.0942 H         1 UNK         0.0934 
     88 H88        27.5103   -1.4545   -9.2686 H         1 UNK         0.0739 
     89 H89        25.8955   -2.6977   -7.3179 H         1 UNK         0.3093 
     90 H90        23.5691   -0.1063   -6.7933 H         1 UNK         0.0818 
     91 H91        21.8993   -1.6508   -7.7767 H         1 UNK         0.0819 
     92 H92        22.8416   -0.9021   -9.0535 H         1 UNK         0.0819 
     93 H93        23.1731   -2.5644   -8.5870 H         1 UNK         0.0819 
     94 H94        23.3520   -2.8041   -6.0726 H         1 UNK         0.3041 
     95 H95        23.6110   -3.4109   -3.9331 H         1 UNK         0.0784 
     96 H96        25.6714   -4.4246   -4.8433 H         1 UNK         0.0793 
     97 H97        26.6820   -3.3763   -3.8544 H         1 UNK         0.0793 
     98 H98        25.6701   -4.6078   -3.0995 H         1 UNK         0.0793 
     99 H99        25.4826   -2.1479   -2.0563 H         1 UNK         0.3024 
    100 H100       23.9155   -0.0391   -0.6223 H         1 UNK         0.1171 
    101 H101       22.6720   -0.8360    1.4140 H         1 UNK         0.0786 
    102 H102       21.6259   -0.7788    0.0067 H         1 UNK         0.0786 
    103 H103       22.2463   -2.3255    0.5722 H         1 UNK         0.0786 
    104 H104       25.0342   -2.7090   -0.0138 H         1 UNK         0.2977 
    105 H105       27.2076   -0.6769   -5.8648 H         1 UNK         0.3127 
    106 H106       29.7080    0.6694   -5.5562 H         1 UNK         0.0770 
    107 H107       27.0310    1.2144   -4.1766 H         1 UNK         0.0814 
    108 H108       28.2255    0.0285   -3.6495 H         1 UNK         0.0814 
    109 H109       28.6143    1.7412   -3.6232 H         1 UNK         0.0814 
    110 H110       26.7869    1.5457   -7.2710 H         1 UNK         0.2983 
    111 H111       27.8233    4.3068   -7.7908 H         1 UNK         0.0947 
    112 H112       25.4869    4.2332   -6.9615 H         1 UNK         0.0806 
    113 H113       25.0376    3.1004   -8.2341 H         1 UNK         0.0806 
    114 H114       25.5240    4.7408   -8.6423 H         1 UNK         0.0806 
    115 H115       26.5003    1.3474   -9.3730 H         1 UNK         0.3000 
    116 H116       26.8496    2.3577  -12.0057 H         1 UNK         0.0850 
    117 H117       26.1306    0.0845  -12.6987 H         1 UNK         0.0810 
    118 H118       25.1157    0.6969  -11.4031 H         1 UNK         0.0810 
    119 H119       26.3483   -0.5126  -11.0612 H         1 UNK         0.0810 
    120 H120       28.9454    0.1858  -10.0635 H         1 UNK         0.3040 
    121 H121       30.8302   -0.0842  -12.3664 H         1 UNK         0.0766 
    122 H122       30.7990   -1.6393   -9.7298 H         1 UNK         0.0812 
    123 H123       31.7796   -1.9566  -11.1466 H         1 UNK         0.0812 
    124 H124       30.0423   -2.1980  -11.2223 H         1 UNK         0.0812 
    125 H125       30.5127    1.0948   -9.0489 H         1 UNK         0.3205 
    126 H126       31.5146    2.6322   -7.8536 H         1 UNK         0.0754 
    127 H127       33.0354    4.3256   -8.8053 H         1 UNK         0.0769 
    128 H128       31.6735    4.0617   -9.8823 H         1 UNK         0.0769 
    129 H129       33.2523    3.3742  -10.2648 H         1 UNK         0.0769 
    130 H130       33.5731    0.3394   -9.4198 H         1 UNK         0.2981 
    131 H131       35.2041   -0.9345   -8.8288 H         1 UNK         0.0541 
    132 H132       35.9823    2.0746   -8.5147 H         1 UNK         0.3459 
    133 H133       37.5637    1.9017   -7.7918 H         1 UNK         0.3459 
    134 H134       35.0886   -2.1393   -6.7726 H         1 UNK         0.0612 
    135 H135       33.4802   -1.7819   -7.3004 H         1 UNK         0.0612 
    136 H136       32.0401    0.5999   -4.7691 H         1 UNK         0.0624 
    137 H137       31.9605   -0.0688   -6.3747 H         1 UNK         0.0624 
@<TRIPOS>BOND
     1    1    2 1    
     2    1   72 1    
     3    1   73 1    
     4    1   74 1    
     5    2    3 2    
     6    2    4 am   BACKBONE|DICT|INTERRES
     7    4    5 1    
     8    4   75 1    
     9    5    6 1    
    10    5   35 1    
    11    5   76 1    
    12    6    7 1    
    13    6   77 1    
    14    6   78 1    
    15    7    8 1    
    16    8    9 1    
    17    8   79 1    
    18    8   80 1    
    19    9   10 ar   
    20    9   14 ar   
    21   10   11 ar   
    22   10   81 1    
    23   11   12 ar   
    24   11   71 1    
    25   12   13 ar   
    26   12   82 1    
    27   13   14 ar   
    28   13   15 1    
    29   14   83 1    
    30   15   16 1    
    31   15   84 1    
    32   15   85 1    
    33   16   17 1    
    34   17   18 1    
    35   17   86 1    
    36   17   87 1    
    37   18   19 1    
    38   18   37 1    
    39   18   88 1    
    40   19   20 am   BACKBONE|DICT|INTERRES
    41   19   89 1    
    42   20   21 2    
    43   20   22 1    
    44   22   23 1    
    45   22   24 1    
    46   22   90 1    
    47   23   91 1    
    48   23   92 1    
    49   23   93 1    
    50   24   25 am   BACKBONE|DICT|INTERRES
    51   24   94 1    
    52   25   26 2    
    53   25   27 1    
    54   27   28 1    
    55   27   29 1    
    56   27   95 1    
    57   28   96 1    
    58   28   97 1    
    59   28   98 1    
    60   29   30 am   BACKBONE|DICT|INTERRES
    61   29   99 1    
    62   30   31 2    
    63   30   32 1    
    64   32   33 1    
    65   32   34 1    
    66   32  100 1    
    67   33  101 1    
    68   33  102 1    
    69   33  103 1    
    70   34   35 am   BACKBONE|DICT|INTERRES
    71   34  104 1    
    72   35   36 2    
    73   37   38 2    
    74   37   39 am   BACKBONE|DICT|INTERRES
    75   39   40 1    
    76   39  105 1    
    77   40   41 1    
    78   40   42 1    
    79   40  106 1    
    80   41  107 1    
    81   41  108 1    
    82   41  109 1    
    83   42   43 2    
    84   42   44 am   BACKBONE|DICT|INTERRES
    85   44   45 1    
    86   44  110 1    
    87   45   46 1    
    88   45   47 1    
    89   45  111 1    
    90   46  112 1    
    91   46  113 1    
    92   46  114 1    
    93   47   48 2    
    94   47   49 am   BACKBONE|DICT|INTERRES
    95   49   50 1    
    96   49  115 1    
    97   50   51 1    
    98   50   52 1    
    99   50  116 1    
   100   51  117 1    
   101   51  118 1    
   102   51  119 1    
   103   52   53 2    
   104   52   54 am   BACKBONE|DICT|INTERRES
   105   54   55 1    
   106   54  120 1    
   107   55   56 1    
   108   55   57 1    
   109   55  121 1    
   110   56  122 1    
   111   56  123 1    
   112   56  124 1    
   113   57   58 2    
   114   57   59 am   BACKBONE|DICT|INTERRES
   115   59   60 1    
   116   59  125 1    
   117   60   61 1    
   118   60   62 1    
   119   60  126 1    
   120   61  127 1    
   121   61  128 1    
   122   61  129 1    
   123   62   63 2    
   124   62   64 am   BACKBONE|DICT|INTERRES
   125   64   65 1    
   126   64  130 1    
   127   65   66 1    
   128   65   69 1    
   129   65  131 1    
   130   66   67 am   BACKBONE|DICT|INTERRES
   131   66   68 2    
   132   67  132 1    
   133   67  133 1    
   134   69   70 1    
   135   69  134 1    
   136   69  135 1    
   137   70   71 1    
   138   71  136 1    
   139   71  137 1    
@<TRIPOS>SUBSTRUCTURE
     1 UNK         1 GROUP             0       ****    0 ROOT    
