@<TRIPOS>MOLECULE
3R137
137   139    1
SMALL
USER_CHARGES


@<TRIPOS>ATOM
      1 CA         27.7320   -4.7912    1.8360 C.3       0 UNK        -0.2020 
      2 C          27.7050   -3.3124    1.4802 C.2       0 UNK         0.4855 
      3 O          27.1275   -2.5152    2.2197 O.2       0 UNK        -0.5197 
      4 N          28.3288   -2.9414    0.3545 N.am      1 UNK        -0.4892 
      5 CA         28.3999   -1.5644   -0.1538 C.3       1 UNK         0.0835 
      6 C6         29.4467   -1.4131   -1.2825 C.3       12 UNK        -0.0855 
      7 S7         31.1527   -1.8117   -0.7665 S.3       12 UNK        -0.2931 
      8 C8         31.3506   -3.5590   -1.2567 C.3       12 UNK         0.0378 
      9 C9         31.0845   -3.7959   -2.7373 C.ar      12 UNK        -0.0802 
     10 C10        32.0060   -3.3663   -3.6962 C.ar      12 UNK        -0.0944 
     11 C11        31.7689   -3.5885   -5.0560 C.ar      12 UNK        -0.0787 
     12 C12        30.6038   -4.2515   -5.4543 C.ar      12 UNK        -0.0862 
     13 C13        29.6756   -4.6875   -4.5045 C.ar      12 UNK        -0.0733 
     14 C14        29.9232   -4.4590   -3.1481 C.ar      12 UNK        -0.0832 
     15 C15        28.4151   -5.4253   -4.9312 C.3       12 UNK         0.0240 
     16 S16        27.0659   -4.2752   -5.3414 S.3       12 UNK        -0.2522 
     17 C17        27.2444   -4.1403   -7.1572 C.3       12 UNK        -0.0967 
     18 CA         26.7779   -2.7863   -7.7480 C.3       5 UNK         0.0660 
     19 N          25.4397   -2.4035   -7.2890 N.am      5 UNK        -0.4015 
     20 C          24.7354   -1.3659   -7.7591 C.2       4 UNK         0.4946 
     21 O          25.1345   -0.6156   -8.6482 O.2       4 UNK        -0.5353 
     22 CA         23.4191   -1.0469   -7.0520 C.3       4 UNK         0.0277 
     23 CB         22.5613   -2.2931   -6.7607 C.3       4 UNK        -0.1981 
     24 N          23.7844   -0.3866   -5.8092 N.am      4 UNK        -0.4209 
     25 C          23.2962    0.7585   -5.3328 C.2       3 UNK         0.4942 
     26 O          22.3538    1.3688   -5.8401 O.2       3 UNK        -0.5208 
     27 CA         24.0016    1.3059   -4.0735 C.3       3 UNK         0.0250 
     28 CB         23.3109    2.5593   -3.5046 C.3       3 UNK        -0.1990 
     29 N          24.1298    0.3044   -3.0075 N.am      3 UNK        -0.4232 
     30 C          24.9811   -0.7308   -2.9962 C.2       2 UNK         0.4993 
     31 O          25.7566   -0.9936   -3.9219 O.2       2 UNK        -0.5286 
     32 CA         24.9025   -1.6689   -1.7822 C.3       2 UNK         0.0209 
     33 CB         24.2238   -2.9908   -2.1772 C.3       2 UNK        -0.1931 
     34 N          26.2251   -1.9567   -1.2287 N.am      2 UNK        -0.4546 
     35 C          27.0290   -1.0548   -0.6458 C.2       1 UNK         0.5154 
     36 O          26.7250    0.1274   -0.4782 O.2       1 UNK        -0.5181 
     37 C          27.8167   -1.6636   -7.5497 C.2       5 UNK         0.5014 
     38 O          28.5277   -1.3329   -8.4988 O.2       5 UNK        -0.5248 
     39 N          27.8303   -1.0474   -6.3587 N.am      6 UNK        -0.4434 
     40 CA         28.7135    0.0738   -6.0261 C.3       6 UNK         0.0363 
     41 CB         28.9665    0.0859   -4.5108 C.3       6 UNK        -0.1936 
     42 C          28.2115    1.4395   -6.5340 C.2       6 UNK         0.5081 
     43 O          28.8819    2.4446   -6.2953 O.2       6 UNK        -0.5248 
     44 N          27.0578    1.4698   -7.2160 N.am      7 UNK        -0.4718 
     45 CA         26.5916    2.6252   -7.9838 C.3       7 UNK         0.0273 
     46 CB         25.0761    2.8050   -7.8008 C.3       7 UNK        -0.1935 
     47 C          26.9548    2.4603   -9.4678 C.2       7 UNK         0.5018 
     48 O          27.3971    3.4271  -10.0890 O.2       7 UNK        -0.5186 
     49 N          26.7635    1.2470  -10.0084 N.am      8 UNK        -0.4240 
     50 CA         27.0765    0.8809  -11.3902 C.3       8 UNK         0.0235 
     51 CB         26.4597   -0.4912  -11.7085 C.3       8 UNK        -0.2000 
     52 C          28.5842    0.8801  -11.6885 C.2       8 UNK         0.4941 
     53 O          28.9912    1.4279  -12.7145 O.2       8 UNK        -0.5273 
     54 N          29.3793    0.2721  -10.7995 N.am      9 UNK        -0.4262 
     55 CA         30.8390    0.2489  -10.8725 C.3       9 UNK         0.0264 
     56 CB         31.3317   -1.1731  -10.5599 C.3       9 UNK        -0.1955 
     57 C          31.4194    1.2537   -9.8700 C.2       9 UNK         0.5031 
     58 O          30.8165    1.5000   -8.8231 O.2       9 UNK        -0.5390 
     59 N          32.6054    1.7914  -10.1825 N.am      10 UNK        -0.4204 
     60 CA         33.3426    2.7562   -9.3584 C.3       10 UNK         0.0237 
     61 CB         34.2930    3.5623  -10.2647 C.3       10 UNK        -0.1985 
     62 C          34.0746    2.0783   -8.1812 C.2       10 UNK         0.4970 
     63 O          35.2964    2.1911   -8.0625 O.2       10 UNK        -0.4914 
     64 N          33.3131    1.3609   -7.3510 N.am      11 UNK        -0.4285 
     65 CA         33.7811    0.6445   -6.1578 C.3       11 UNK         0.1007 
     66 C          34.2546    1.6037   -5.0321 C.2       11 UNK         0.5703 
     67 N          35.2315    1.1893   -4.2365 N.am      11 UNK        -0.7361 
     68 O          33.7237    2.6981   -4.8495 O.2       11 UNK        -0.4986 
     69 C69        32.6960   -0.3292   -5.6345 C.3       12 UNK        -0.0947 
     70 S70        32.2399   -1.5762   -6.8868 S.3       12 UNK        -0.2240 
     71 C71        32.7721   -3.1251   -6.1003 C.3       12 UNK         0.0194 
     72 H72        28.2801   -5.3799    1.1006 H         1 UNK         0.0906 
     73 H73        28.2070   -4.9346    2.8062 H         1 UNK         0.0906 
     74 H74        26.7162   -5.1815    1.8934 H         1 UNK         0.0906 
     75 H75        28.8065   -3.6363   -0.1976 H         1 UNK         0.3140 
     76 H76        28.6998   -0.9197    0.6759 H         1 UNK         0.1085 
     77 H77        29.4655   -0.3783   -1.6305 H         1 UNK         0.0836 
     78 H78        29.1637   -2.0080   -2.1505 H         1 UNK         0.0836 
     79 H79        32.3707   -3.8696   -1.0255 H         1 UNK         0.0731 
     80 H80        30.7046   -4.1849   -0.6406 H         1 UNK         0.0731 
     81 H81        32.9057   -2.8564   -3.3801 H         1 UNK         0.1312 
     82 H82        30.4238   -4.4256   -6.5057 H         1 UNK         0.1406 
     83 H83        29.2079   -4.8016   -2.4134 H         1 UNK         0.1631 
     84 H84        28.0772   -6.0781   -4.1250 H         1 UNK         0.0717 
     85 H85        28.6251   -6.0825   -5.7764 H         1 UNK         0.0717 
     86 H86        28.2749   -4.3454   -7.4512 H         1 UNK         0.0934 
     87 H87        26.6549   -4.9449   -7.5997 H         1 UNK         0.0934 
     88 H88        26.6969   -2.9277   -8.8283 H         1 UNK         0.0739 
     89 H89        25.0641   -2.9549   -6.5311 H         1 UNK         0.3093 
     90 H90        22.8528   -0.3696   -7.6953 H         1 UNK         0.0818 
     91 H91        21.5910   -2.0067   -6.3546 H         1 UNK         0.0819 
     92 H92        22.3735   -2.8612   -7.6728 H         1 UNK         0.0819 
     93 H93        23.0294   -2.9649   -6.0405 H         1 UNK         0.0819 
     94 H94        24.5725   -0.7810   -5.2983 H         1 UNK         0.3041 
     95 H95        25.0077    1.5981   -4.3837 H         1 UNK         0.0784 
     96 H96        23.2567    3.3507   -4.2535 H         1 UNK         0.0793 
     97 H97        22.2916    2.3463   -3.1801 H         1 UNK         0.0793 
     98 H98        23.8586    2.9624   -2.6524 H         1 UNK         0.0793 
     99 H99        23.5000    0.4161   -2.2259 H         1 UNK         0.3024 
    100 H100       24.3097   -1.1922   -0.9981 H         1 UNK         0.1171 
    101 H101       23.2250   -2.8135   -2.5786 H         1 UNK         0.0786 
    102 H102       24.1138   -3.6537   -1.3187 H         1 UNK         0.0786 
    103 H103       24.7918   -3.5228   -2.9422 H         1 UNK         0.0786 
    104 H104       26.5655   -2.9002   -1.3355 H         1 UNK         0.2977 
    105 H105       27.2034   -1.3619   -5.6262 H         1 UNK         0.3127 
    106 H106       29.6738   -0.0920   -6.5177 H         1 UNK         0.0770 
    107 H107       28.0490    0.2429   -3.9445 H         1 UNK         0.0814 
    108 H108       29.6591    0.8811   -4.2328 H         1 UNK         0.0814 
    109 H109       29.4132   -0.8551   -4.1907 H         1 UNK         0.0814 
    110 H110       26.5796    0.5949   -7.3813 H         1 UNK         0.2983 
    111 H111       27.0766    3.5370   -7.6275 H         1 UNK         0.0947 
    112 H112       24.7125    3.6514   -8.3848 H         1 UNK         0.0806 
    113 H113       24.8269    3.0041   -6.7589 H         1 UNK         0.0806 
    114 H114       24.5143    1.9269   -8.1193 H         1 UNK         0.0806 
    115 H115       26.3151    0.5256   -9.4476 H         1 UNK         0.3000 
    116 H116       26.6103    1.6219  -12.0431 H         1 UNK         0.0850 
    117 H117       26.6686   -0.7857  -12.7379 H         1 UNK         0.0810 
    118 H118       25.3762   -0.4751  -11.5885 H         1 UNK         0.0810 
    119 H119       26.8546   -1.2718  -11.0567 H         1 UNK         0.0810 
    120 H120       28.9760   -0.1289   -9.9552 H         1 UNK         0.3040 
    121 H121       31.1773    0.5181  -11.8753 H         1 UNK         0.0766 
    122 H122       32.4210   -1.2269  -10.5711 H         1 UNK         0.0812 
    123 H123       30.9623   -1.8887  -11.2943 H         1 UNK         0.0812 
    124 H124       30.9987   -1.5061   -9.5768 H         1 UNK         0.0812 
    125 H125       33.0565    1.5008  -11.0384 H         1 UNK         0.3205 
    126 H126       32.6287    3.4597   -8.9239 H         1 UNK         0.0754 
    127 H127       34.8277    4.3223   -9.6932 H         1 UNK         0.0769 
    128 H128       33.7455    4.0802  -11.0526 H         1 UNK         0.0769 
    129 H129       35.0400    2.9238  -10.7383 H         1 UNK         0.0769 
    130 H130       32.3172    1.3167   -7.5442 H         1 UNK         0.2981 
    131 H131       34.6447    0.0502   -6.4635 H         1 UNK         0.0541 
    132 H132       35.6686    0.2908   -4.3698 H         1 UNK         0.3459 
    133 H133       35.5436    1.7917   -3.4911 H         1 UNK         0.3459 
    134 H134       31.7972    0.2194   -5.3515 H         1 UNK         0.0612 
    135 H135       33.0392   -0.8335   -4.7304 H         1 UNK         0.0612 
    136 H136       33.7645   -2.9981   -5.6648 H         1 UNK         0.0624 
    137 H137       32.8729   -3.8908   -6.8707 H         1 UNK         0.0624 
@<TRIPOS>BOND
     1    1    2 1    
     2    1   72 1    
     3    1   73 1    
     4    1   74 1    
     5    2    3 2    
     6    2    4 am   BACKBONE|DICT|INTERRES
     7    4    5 1    
     8    4   75 1    
     9    5    6 1    
    10    5   35 1    
    11    5   76 1    
    12    6    7 1    
    13    6   77 1    
    14    6   78 1    
    15    7    8 1    
    16    8    9 1    
    17    8   79 1    
    18    8   80 1    
    19    9   10 ar   
    20    9   14 ar   
    21   10   11 ar   
    22   10   81 1    
    23   11   12 ar   
    24   11   71 1    
    25   12   13 ar   
    26   12   82 1    
    27   13   14 ar   
    28   13   15 1    
    29   14   83 1    
    30   15   16 1    
    31   15   84 1    
    32   15   85 1    
    33   16   17 1    
    34   17   18 1    
    35   17   86 1    
    36   17   87 1    
    37   18   19 1    
    38   18   37 1    
    39   18   88 1    
    40   19   20 am   BACKBONE|DICT|INTERRES
    41   19   89 1    
    42   20   21 2    
    43   20   22 1    
    44   22   23 1    
    45   22   24 1    
    46   22   90 1    
    47   23   91 1    
    48   23   92 1    
    49   23   93 1    
    50   24   25 am   BACKBONE|DICT|INTERRES
    51   24   94 1    
    52   25   26 2    
    53   25   27 1    
    54   27   28 1    
    55   27   29 1    
    56   27   95 1    
    57   28   96 1    
    58   28   97 1    
    59   28   98 1    
    60   29   30 am   BACKBONE|DICT|INTERRES
    61   29   99 1    
    62   30   31 2    
    63   30   32 1    
    64   32   33 1    
    65   32   34 1    
    66   32  100 1    
    67   33  101 1    
    68   33  102 1    
    69   33  103 1    
    70   34   35 am   BACKBONE|DICT|INTERRES
    71   34  104 1    
    72   35   36 2    
    73   37   38 2    
    74   37   39 am   BACKBONE|DICT|INTERRES
    75   39   40 1    
    76   39  105 1    
    77   40   41 1    
    78   40   42 1    
    79   40  106 1    
    80   41  107 1    
    81   41  108 1    
    82   41  109 1    
    83   42   43 2    
    84   42   44 am   BACKBONE|DICT|INTERRES
    85   44   45 1    
    86   44  110 1    
    87   45   46 1    
    88   45   47 1    
    89   45  111 1    
    90   46  112 1    
    91   46  113 1    
    92   46  114 1    
    93   47   48 2    
    94   47   49 am   BACKBONE|DICT|INTERRES
    95   49   50 1    
    96   49  115 1    
    97   50   51 1    
    98   50   52 1    
    99   50  116 1    
   100   51  117 1    
   101   51  118 1    
   102   51  119 1    
   103   52   53 2    
   104   52   54 am   BACKBONE|DICT|INTERRES
   105   54   55 1    
   106   54  120 1    
   107   55   56 1    
   108   55   57 1    
   109   55  121 1    
   110   56  122 1    
   111   56  123 1    
   112   56  124 1    
   113   57   58 2    
   114   57   59 am   BACKBONE|DICT|INTERRES
   115   59   60 1    
   116   59  125 1    
   117   60   61 1    
   118   60   62 1    
   119   60  126 1    
   120   61  127 1    
   121   61  128 1    
   122   61  129 1    
   123   62   63 2    
   124   62   64 am   BACKBONE|DICT|INTERRES
   125   64   65 1    
   126   64  130 1    
   127   65   66 1    
   128   65   69 1    
   129   65  131 1    
   130   66   67 am   BACKBONE|DICT|INTERRES
   131   66   68 2    
   132   67  132 1    
   133   67  133 1    
   134   69   70 1    
   135   69  134 1    
   136   69  135 1    
   137   70   71 1    
   138   71  136 1    
   139   71  137 1    
@<TRIPOS>SUBSTRUCTURE
     1 UNK         1 GROUP             0       ****    0 ROOT    
