@<TRIPOS>MOLECULE
3R137
137   139    1
SMALL
USER_CHARGES


@<TRIPOS>ATOM
      1 CA         30.5324    1.2427   -0.1443 C.3       0 UNK        -0.2020 
      2 C          30.1646    0.0192   -0.9698 C.2       0 UNK         0.4855 
      3 O          30.6348   -0.1139   -2.0983 O.2       0 UNK        -0.5197 
      4 N          29.3263   -0.8600   -0.4146 N.am      1 UNK        -0.4892 
      5 CA         28.7943   -2.0683   -1.0518 C.3       1 UNK         0.0835 
      6 C6         29.3456   -3.3580   -0.3917 C.3       12 UNK        -0.0855 
      7 S7         31.1628   -3.4884   -0.5307 S.3       12 UNK        -0.2931 
      8 C8         31.3743   -4.8418   -1.7281 C.3       12 UNK         0.0378 
      9 C9         30.8570   -4.4870   -3.1160 C.ar      12 UNK        -0.0802 
     10 C10        31.5975   -3.6473   -3.9547 C.ar      12 UNK        -0.0944 
     11 C11        31.1600   -3.3684   -5.2587 C.ar      12 UNK        -0.0787 
     12 C12        29.9683   -3.9455   -5.7072 C.ar      12 UNK        -0.0862 
     13 C13        29.2169   -4.7833   -4.8780 C.ar      12 UNK        -0.0733 
     14 C14        29.6634   -5.0440   -3.5806 C.ar      12 UNK        -0.0832 
     15 C15        27.9475   -5.4466   -5.3900 C.3       12 UNK         0.0240 
     16 S16        26.5777   -4.2626   -5.5403 S.3       12 UNK        -0.2522 
     17 C17        26.6513   -3.8352   -7.3112 C.3       12 UNK        -0.0967 
     18 CA         26.3568   -2.3505   -7.6227 C.3       5 UNK         0.0660 
     19 N          25.0559   -1.9041   -7.1193 N.am      5 UNK        -0.4015 
     20 C          24.3985   -0.8428   -7.6037 C.2       4 UNK         0.4946 
     21 O          24.8544   -0.1049   -8.4788 O.2       4 UNK        -0.5353 
     22 CA         23.0138   -0.5522   -7.0039 C.3       4 UNK         0.0277 
     23 CB         22.0179   -1.6814   -7.3198 C.3       4 UNK        -0.1981 
     24 N          23.0765   -0.3329   -5.5585 N.am      4 UNK        -0.4209 
     25 C          23.6153    0.7533   -4.9884 C.2       3 UNK         0.4942 
     26 O          24.0647    1.7075   -5.6221 O.2       3 UNK        -0.5208 
     27 CA         23.6697    0.7938   -3.4503 C.3       3 UNK         0.0250 
     28 CB         22.4042    1.4652   -2.8916 C.3       3 UNK        -0.1990 
     29 N          23.8773   -0.4912   -2.7669 N.am      3 UNK        -0.4232 
     30 C          24.8644   -1.3616   -3.0188 C.2       2 UNK         0.4993 
     31 O          25.5964   -1.3082   -4.0084 O.2       2 UNK        -0.5286 
     32 CA         25.0878   -2.4765   -1.9883 C.3       2 UNK         0.0209 
     33 CB         24.4227   -3.7895   -2.4288 C.3       2 UNK        -0.1931 
     34 N          26.5333   -2.6679   -1.8315 N.am      2 UNK        -0.4546 
     35 C          27.2605   -1.9987   -0.9272 C.2       1 UNK         0.5154 
     36 O          26.7578   -1.3381   -0.0114 O.2       1 UNK        -0.5181 
     37 C          27.5076   -1.4013   -7.2367 C.2       5 UNK         0.5014 
     38 O          28.4388   -1.2539   -8.0267 O.2       5 UNK        -0.5248 
     39 N          27.4006   -0.7246   -6.0842 N.am      6 UNK        -0.4434 
     40 CA         28.3213    0.3307   -5.6529 C.3       6 UNK         0.0363 
     41 CB         28.0828    0.6381   -4.1670 C.3       6 UNK        -0.1936 
     42 C          28.2236    1.6223   -6.4873 C.2       6 UNK         0.5081 
     43 O          29.1412    2.4398   -6.4208 O.2       6 UNK        -0.5248 
     44 N          27.1258    1.8008   -7.2364 N.am      7 UNK        -0.4718 
     45 CA         26.9681    2.8734   -8.2181 C.3       7 UNK         0.0273 
     46 CB         25.5099    3.3595   -8.2283 C.3       7 UNK        -0.1935 
     47 C          27.3985    2.4095   -9.6182 C.2       7 UNK         0.5018 
     48 O          28.0165    3.1913  -10.3421 O.2       7 UNK        -0.5186 
     49 N          27.0542    1.1646   -9.9849 N.am      8 UNK        -0.4240 
     50 CA         27.3715    0.5648  -11.2845 C.3       8 UNK         0.0235 
     51 CB         26.5698   -0.7334  -11.4694 C.3       8 UNK        -0.2000 
     52 C          28.8745    0.3063  -11.4879 C.2       8 UNK         0.4941 
     53 O          29.3933    0.6075  -12.5642 O.2       8 UNK        -0.5273 
     54 N          29.5406   -0.2406  -10.4640 N.am      9 UNK        -0.4262 
     55 CA         30.9873   -0.4481  -10.4172 C.3       9 UNK         0.0264 
     56 CB         31.2713   -1.8711   -9.9083 C.3       9 UNK        -0.1955 
     57 C          31.6243    0.6070   -9.5018 C.2       9 UNK         0.5031 
     58 O          30.9372    1.2017   -8.6697 O.2       9 UNK        -0.5390 
     59 N          32.9335    0.8281   -9.6683 N.am      10 UNK        -0.4204 
     60 CA         33.7113    1.8638   -8.9806 C.3       10 UNK         0.0237 
     61 CB         34.9751    2.1624   -9.8109 C.3       10 UNK        -0.1985 
     62 C          34.0342    1.5183   -7.5108 C.2       10 UNK         0.4970 
     63 O          35.2098    1.4232   -7.1511 O.2       10 UNK        -0.4914 
     64 N          32.9905    1.3511   -6.6928 N.am      11 UNK        -0.4285 
     65 CA         33.0661    1.1878   -5.2332 C.3       11 UNK         0.1007 
     66 C          32.4044    2.4105   -4.5355 C.2       11 UNK         0.5703 
     67 N          31.6640    2.2338   -3.4490 N.am      11 UNK        -0.7361 
     68 O          32.6091    3.5521   -4.9460 O.2       11 UNK        -0.4986 
     69 C69        32.5462   -0.1957   -4.7509 C.3       12 UNK        -0.0947 
     70 S70        33.3780   -1.5999   -5.5628 S.3       12 UNK        -0.2240 
     71 C71        31.9456   -2.4991   -6.2451 C.3       12 UNK         0.0194 
     72 H72        31.6159    1.3298   -0.0672 H         1 UNK         0.0906 
     73 H73        30.1508    2.1449   -0.6214 H         1 UNK         0.0906 
     74 H74        30.1244    1.1923    0.8650 H         1 UNK         0.0906 
     75 H75        28.9011   -0.6525    0.4795 H         1 UNK         0.3140 
     76 H76        29.0468   -2.0778   -2.1151 H         1 UNK         0.1085 
     77 H77        28.8846   -4.2443   -0.8303 H         1 UNK         0.0836 
     78 H78        29.0896   -3.3827    0.6694 H         1 UNK         0.0836 
     79 H79        32.4358   -5.0848   -1.7948 H         1 UNK         0.0731 
     80 H80        30.8846   -5.7393   -1.3467 H         1 UNK         0.0731 
     81 H81        32.5222   -3.2313   -3.5817 H         1 UNK         0.1312 
     82 H82        29.6331   -3.7488   -6.7155 H         1 UNK         0.1406 
     83 H83        29.0950   -5.7052   -2.9403 H         1 UNK         0.1631 
     84 H84        27.6343   -6.2401   -4.7098 H         1 UNK         0.0717 
     85 H85        28.1404   -5.9362   -6.3456 H         1 UNK         0.0717 
     86 H86        27.6149   -4.1207   -7.7350 H         1 UNK         0.0934 
     87 H87        25.9194   -4.4605   -7.8250 H         1 UNK         0.0934 
     88 H88        26.2924   -2.2938   -8.7103 H         1 UNK         0.0739 
     89 H89        24.6685   -2.4279   -6.3478 H         1 UNK         0.3093 
     90 H90        22.6405    0.3620   -7.4714 H         1 UNK         0.0818 
     91 H91        21.0112   -1.4216   -6.9918 H         1 UNK         0.0819 
     92 H92        21.9678   -1.8668   -8.3938 H         1 UNK         0.0819 
     93 H93        22.2929   -2.6208   -6.8391 H         1 UNK         0.0819 
     94 H94        22.7369   -1.0701   -4.9585 H         1 UNK         0.3041 
     95 H95        24.5239    1.4220   -3.1892 H         1 UNK         0.0784 
     96 H96        22.2345    2.4347   -3.3629 H         1 UNK         0.0793 
     97 H97        21.5150    0.8581   -3.0664 H         1 UNK         0.0793 
     98 H98        22.4867    1.6413   -1.8189 H         1 UNK         0.0793 
     99 H99        23.3081   -0.6442   -1.9466 H         1 UNK         0.3024 
    100 H100       24.6435   -2.1787   -1.0356 H         1 UNK         0.1171 
    101 H101       23.3397   -3.6750   -2.4883 H         1 UNK         0.0786 
    102 H102       24.6246   -4.5923   -1.7195 H         1 UNK         0.0786 
    103 H103       24.7652   -4.1163   -3.4081 H         1 UNK         0.0786 
    104 H104       26.9992   -3.1398   -2.5943 H         1 UNK         0.2977 
    105 H105       26.6324   -0.9426   -5.4486 H         1 UNK         0.3127 
    106 H106       29.3373   -0.0503   -5.7670 H         1 UNK         0.0770 
    107 H107       27.0834    1.0388   -3.9945 H         1 UNK         0.0814 
    108 H108       28.7999    1.3736   -3.8005 H         1 UNK         0.0814 
    109 H109       28.1972   -0.2566   -3.5566 H         1 UNK         0.0814 
    110 H110       26.3968    1.0997   -7.2091 H         1 UNK         0.2983 
    111 H111       27.5983    3.7224   -7.9435 H         1 UNK         0.0947 
    112 H112       25.3725    4.1659   -8.9498 H         1 UNK         0.0806 
    113 H113       25.2166    3.7444   -7.2515 H         1 UNK         0.0806 
    114 H114       24.8144    2.5626   -8.4926 H         1 UNK         0.0806 
    115 H115       26.4724    0.6182   -9.3573 H         1 UNK         0.3000 
    116 H116       27.0503    1.2690  -12.0551 H         1 UNK         0.0850 
    117 H117       26.7044   -1.1309  -12.4762 H         1 UNK         0.0810 
    118 H118       25.5017   -0.5686  -11.3249 H         1 UNK         0.0810 
    119 H119       26.8899   -1.5069  -10.7724 H         1 UNK         0.0810 
    120 H120       29.0510   -0.4224   -9.5892 H         1 UNK         0.3040 
    121 H121       31.4221   -0.3429  -11.4134 H         1 UNK         0.0766 
    122 H122       32.3410   -2.0489   -9.7920 H         1 UNK         0.0812 
    123 H123       30.8926   -2.6183  -10.6057 H         1 UNK         0.0812 
    124 H124       30.8003   -2.0550   -8.9442 H         1 UNK         0.0812 
    125 H125       33.4362    0.2675  -10.3414 H         1 UNK         0.3205 
    126 H126       33.1148    2.7788   -8.9604 H         1 UNK         0.0754 
    127 H127       35.5612    2.9633   -9.3578 H         1 UNK         0.0769 
    128 H128       34.7201    2.4851  -10.8206 H         1 UNK         0.0769 
    129 H129       35.6230    1.2884   -9.8906 H         1 UNK         0.0769 
    130 H130       32.0585    1.4438   -7.0891 H         1 UNK         0.2981 
    131 H131       34.1103    1.2451   -4.9221 H         1 UNK         0.0541 
    132 H132       31.4540    1.3077   -3.0863 H         1 UNK         0.3459 
    133 H133       31.2651    3.0445   -3.0056 H         1 UNK         0.3459 
    134 H134       31.4677   -0.2700   -4.8900 H         1 UNK         0.0612 
    135 H135       32.7243   -0.3085   -3.6809 H         1 UNK         0.0612 
    136 H136       31.2707   -1.7751   -6.7040 H         1 UNK         0.0624 
    137 H137       32.3072   -3.1397   -7.0503 H         1 UNK         0.0624 
@<TRIPOS>BOND
     1    1    2 1    
     2    1   72 1    
     3    1   73 1    
     4    1   74 1    
     5    2    3 2    
     6    2    4 am   BACKBONE|DICT|INTERRES
     7    4    5 1    
     8    4   75 1    
     9    5    6 1    
    10    5   35 1    
    11    5   76 1    
    12    6    7 1    
    13    6   77 1    
    14    6   78 1    
    15    7    8 1    
    16    8    9 1    
    17    8   79 1    
    18    8   80 1    
    19    9   10 ar   
    20    9   14 ar   
    21   10   11 ar   
    22   10   81 1    
    23   11   12 ar   
    24   11   71 1    
    25   12   13 ar   
    26   12   82 1    
    27   13   14 ar   
    28   13   15 1    
    29   14   83 1    
    30   15   16 1    
    31   15   84 1    
    32   15   85 1    
    33   16   17 1    
    34   17   18 1    
    35   17   86 1    
    36   17   87 1    
    37   18   19 1    
    38   18   37 1    
    39   18   88 1    
    40   19   20 am   BACKBONE|DICT|INTERRES
    41   19   89 1    
    42   20   21 2    
    43   20   22 1    
    44   22   23 1    
    45   22   24 1    
    46   22   90 1    
    47   23   91 1    
    48   23   92 1    
    49   23   93 1    
    50   24   25 am   BACKBONE|DICT|INTERRES
    51   24   94 1    
    52   25   26 2    
    53   25   27 1    
    54   27   28 1    
    55   27   29 1    
    56   27   95 1    
    57   28   96 1    
    58   28   97 1    
    59   28   98 1    
    60   29   30 am   BACKBONE|DICT|INTERRES
    61   29   99 1    
    62   30   31 2    
    63   30   32 1    
    64   32   33 1    
    65   32   34 1    
    66   32  100 1    
    67   33  101 1    
    68   33  102 1    
    69   33  103 1    
    70   34   35 am   BACKBONE|DICT|INTERRES
    71   34  104 1    
    72   35   36 2    
    73   37   38 2    
    74   37   39 am   BACKBONE|DICT|INTERRES
    75   39   40 1    
    76   39  105 1    
    77   40   41 1    
    78   40   42 1    
    79   40  106 1    
    80   41  107 1    
    81   41  108 1    
    82   41  109 1    
    83   42   43 2    
    84   42   44 am   BACKBONE|DICT|INTERRES
    85   44   45 1    
    86   44  110 1    
    87   45   46 1    
    88   45   47 1    
    89   45  111 1    
    90   46  112 1    
    91   46  113 1    
    92   46  114 1    
    93   47   48 2    
    94   47   49 am   BACKBONE|DICT|INTERRES
    95   49   50 1    
    96   49  115 1    
    97   50   51 1    
    98   50   52 1    
    99   50  116 1    
   100   51  117 1    
   101   51  118 1    
   102   51  119 1    
   103   52   53 2    
   104   52   54 am   BACKBONE|DICT|INTERRES
   105   54   55 1    
   106   54  120 1    
   107   55   56 1    
   108   55   57 1    
   109   55  121 1    
   110   56  122 1    
   111   56  123 1    
   112   56  124 1    
   113   57   58 2    
   114   57   59 am   BACKBONE|DICT|INTERRES
   115   59   60 1    
   116   59  125 1    
   117   60   61 1    
   118   60   62 1    
   119   60  126 1    
   120   61  127 1    
   121   61  128 1    
   122   61  129 1    
   123   62   63 2    
   124   62   64 am   BACKBONE|DICT|INTERRES
   125   64   65 1    
   126   64  130 1    
   127   65   66 1    
   128   65   69 1    
   129   65  131 1    
   130   66   67 am   BACKBONE|DICT|INTERRES
   131   66   68 2    
   132   67  132 1    
   133   67  133 1    
   134   69   70 1    
   135   69  134 1    
   136   69  135 1    
   137   70   71 1    
   138   71  136 1    
   139   71  137 1    
@<TRIPOS>SUBSTRUCTURE
     1 UNK         1 GROUP             0       ****    0 ROOT    
