@<TRIPOS>MOLECULE
3R137
137   139    1
SMALL
USER_CHARGES


@<TRIPOS>ATOM
      1 CA         24.0656   -5.5912   -4.5726 C.3       0 UNK        -0.2020 
      2 C          24.6537   -4.9710   -3.3146 C.2       0 UNK         0.4855 
      3 O          23.9655   -4.2224   -2.6200 O.2       0 UNK        -0.5197 
      4 N          25.9275   -5.2657   -3.0232 N.am      1 UNK        -0.4892 
      5 CA         26.6889   -4.7410   -1.8838 C.3       1 UNK         0.0835 
      6 C6         28.0729   -5.4259   -1.7988 C.3       12 UNK        -0.0855 
      7 S7         28.9949   -5.0216   -0.2750 S.3       12 UNK        -0.2931 
      8 C8         30.7106   -4.9509   -0.8881 C.3       12 UNK         0.0378 
      9 C9         30.9434   -3.7676   -1.8175 C.ar      12 UNK        -0.0802 
     10 C10        31.0091   -3.9581   -3.2012 C.ar      12 UNK        -0.0944 
     11 C11        31.2125   -2.8737   -4.0571 C.ar      12 UNK        -0.0787 
     12 C12        31.3838   -1.5979   -3.5178 C.ar      12 UNK        -0.0862 
     13 C13        31.2975   -1.3842   -2.1381 C.ar      12 UNK        -0.0733 
     14 C14        31.0871   -2.4793   -1.2934 C.ar      12 UNK        -0.0832 
     15 C15        31.4091    0.0173   -1.5369 C.3       12 UNK         0.0240 
     16 S16        30.7072    1.3611   -2.5640 S.3       12 UNK        -0.2522 
     17 C17        29.0316    0.7455   -2.9471 C.3       12 UNK        -0.0967 
     18 CA         28.8012    0.6321   -4.4805 C.3       5 UNK         0.0660 
     19 N          28.0189   -0.5514   -4.8419 N.am      5 UNK        -0.4015 
     20 C          27.8200   -0.9886   -6.0941 C.2       4 UNK         0.4946 
     21 O          28.4014   -0.5368   -7.0805 O.2       4 UNK        -0.5353 
     22 CA         26.7537   -2.0807   -6.2852 C.3       4 UNK         0.0277 
     23 CB         27.3713   -3.4857   -6.2009 C.3       4 UNK        -0.1981 
     24 N          25.6626   -1.9498   -5.3142 N.am      4 UNK        -0.4209 
     25 C          24.7252   -0.9905   -5.3671 C.2       3 UNK         0.4942 
     26 O          24.6372   -0.1762   -6.2841 O.2       3 UNK        -0.5208 
     27 CA         23.7504   -0.8850   -4.1819 C.3       3 UNK         0.0250 
     28 CB         22.4980   -1.7414   -4.4235 C.3       3 UNK        -0.1990 
     29 N          24.3740   -1.2458   -2.9056 N.am      3 UNK        -0.4232 
     30 C          25.2967   -0.4876   -2.2920 C.2       2 UNK         0.4993 
     31 O          25.6740    0.6017   -2.7222 O.2       2 UNK        -0.5286 
     32 CA         25.9592   -1.0530   -1.0226 C.3       2 UNK         0.0209 
     33 CB         25.1756   -0.6258    0.2280 C.3       2 UNK        -0.1931 
     34 N          26.1070   -2.5112   -1.0344 N.am      2 UNK        -0.4546 
     35 C          26.7829   -3.2018   -1.9632 C.2       1 UNK         0.5154 
     36 O          27.3874   -2.6707   -2.8975 O.2       1 UNK        -0.5181 
     37 C          28.1739    1.9140   -5.0670 C.2       5 UNK         0.5014 
     38 O          28.8490    2.6505   -5.7884 O.2       5 UNK        -0.5248 
     39 N          26.8802    2.1290   -4.7798 N.am      6 UNK        -0.4434 
     40 CA         26.0845    3.2746   -5.2343 C.3       6 UNK         0.0363 
     41 CB         24.7001    3.2282   -4.5692 C.3       6 UNK        -0.1936 
     42 C          25.9378    3.3816   -6.7627 C.2       6 UNK         0.5081 
     43 O          25.8026    4.4940   -7.2729 O.2       6 UNK        -0.5248 
     44 N          25.9845    2.2423   -7.4684 N.am      7 UNK        -0.4718 
     45 CA         25.9704    2.1605   -8.9326 C.3       7 UNK         0.0273 
     46 CB         25.8019    0.6939   -9.3613 C.3       7 UNK        -0.1935 
     47 C          27.2125    2.7718   -9.6076 C.2       7 UNK         0.5018 
     48 O          27.1369    3.1016  -10.7921 O.2       7 UNK        -0.5186 
     49 N          28.3225    2.9036   -8.8634 N.am      8 UNK        -0.4240 
     50 CA         29.6114    3.5185   -9.2161 C.3       8 UNK         0.0235 
     51 CB         29.4435    5.0144   -9.5447 C.3       8 UNK        -0.2000 
     52 C          30.4155    2.8018  -10.3168 C.2       8 UNK         0.4941 
     53 O          31.6343    2.6882  -10.1845 O.2       8 UNK        -0.5273 
     54 N          29.7494    2.3089  -11.3676 N.am      9 UNK        -0.4262 
     55 CA         30.3216    1.5658  -12.4962 C.3       9 UNK         0.0264 
     56 CB         29.3510    1.6581  -13.6886 C.3       9 UNK        -0.1955 
     57 C          30.6725    0.1081  -12.1267 C.2       9 UNK         0.5031 
     58 O          30.2488   -0.8259  -12.8109 O.2       9 UNK        -0.5390 
     59 N          31.4328   -0.0532  -11.0416 N.am      10 UNK        -0.4204 
     60 CA         31.8908   -1.3002  -10.4370 C.3       10 UNK         0.0237 
     61 CB         30.6990   -2.0967   -9.8486 C.3       10 UNK        -0.1985 
     62 C          32.9501   -0.9188   -9.3890 C.2       10 UNK         0.4970 
     63 O          33.6855    0.0491   -9.5951 O.2       10 UNK        -0.4914 
     64 N          32.9911   -1.6506   -8.2711 N.am      11 UNK        -0.4285 
     65 CA         33.7479   -1.3088   -7.0556 C.3       11 UNK         0.1007 
     66 C          33.2476   -0.0367   -6.3047 C.2       11 UNK         0.5703 
     67 N          32.0740    0.5081   -6.6072 N.am      11 UNK        -0.7361 
     68 O          33.9489    0.4721   -5.4344 O.2       11 UNK        -0.4986 
     69 C69        33.9349   -2.5286   -6.0961 C.3       12 UNK        -0.0947 
     70 S70        32.6848   -3.8609   -6.2056 S.3       12 UNK        -0.2240 
     71 C71        31.1791   -3.0717   -5.5637 C.3       12 UNK         0.0194 
     72 H72        23.9330   -4.8306   -5.3414 H         1 UNK         0.0906 
     73 H73        24.7055   -6.3753   -4.9770 H         1 UNK         0.0906 
     74 H74        23.0923   -6.0301   -4.3550 H         1 UNK         0.0906 
     75 H75        26.4424   -5.8741   -3.6437 H         1 UNK         0.3140 
     76 H76        26.1328   -5.0065   -0.9820 H         1 UNK         0.1085 
     77 H77        28.6622   -5.1789   -2.6811 H         1 UNK         0.0836 
     78 H78        27.9500   -6.5100   -1.8196 H         1 UNK         0.0836 
     79 H79        31.3867   -4.8777   -0.0350 H         1 UNK         0.0731 
     80 H80        30.9544   -5.8898   -1.3881 H         1 UNK         0.0731 
     81 H81        30.8831   -4.9480   -3.6178 H         1 UNK         0.1312 
     82 H82        31.5459   -0.7601   -4.1770 H         1 UNK         0.1406 
     83 H83        31.0203   -2.3313   -0.2239 H         1 UNK         0.1631 
     84 H84        32.4619    0.2340   -1.3530 H         1 UNK         0.0717 
     85 H85        30.9129    0.0470   -0.5655 H         1 UNK         0.0717 
     86 H86        28.9002   -0.2273   -2.4720 H         1 UNK         0.0934 
     87 H87        28.2994    1.3942   -2.4621 H         1 UNK         0.0934 
     88 H88        29.7655    0.5018   -4.9730 H         1 UNK         0.0739 
     89 H89        27.5804   -1.0632   -4.0835 H         1 UNK         0.3093 
     90 H90        26.3345   -1.9588   -7.2865 H         1 UNK         0.0818 
     91 H91        26.6186   -4.2599   -6.3492 H         1 UNK         0.0819 
     92 H92        28.1275   -3.6192   -6.9755 H         1 UNK         0.0819 
     93 H93        27.8547   -3.6659   -5.2407 H         1 UNK         0.0819 
     94 H94        25.7163   -2.5328   -4.4906 H         1 UNK         0.3041 
     95 H95        23.4290    0.1562   -4.1129 H         1 UNK         0.0784 
     96 H96        21.9841   -1.4270   -5.3330 H         1 UNK         0.0793 
     97 H97        22.7398   -2.7972   -4.5381 H         1 UNK         0.0793 
     98 H98        21.7880   -1.6473   -3.6017 H         1 UNK         0.0793 
     99 H99        24.1438   -2.1575   -2.5217 H         1 UNK         0.3024 
    100 H100       26.9608   -0.6227   -0.9616 H         1 UNK         0.1171 
    101 H101       24.1712   -1.0511    0.2413 H         1 UNK         0.0786 
    102 H102       25.0708    0.4595    0.2703 H         1 UNK         0.0786 
    103 H103       25.6848   -0.9354    1.1410 H         1 UNK         0.0786 
    104 H104       25.6055   -3.0206   -0.3207 H         1 UNK         0.2977 
    105 H105       26.4140    1.4880   -4.1384 H         1 UNK         0.3127 
    106 H106       26.5962    4.1773   -4.8946 H         1 UNK         0.0770 
    107 H107       24.1406    2.3432   -4.8726 H         1 UNK         0.0814 
    108 H108       24.1052    4.1002   -4.8440 H         1 UNK         0.0814 
    109 H109       24.7798    3.2194   -3.4819 H         1 UNK         0.0814 
    110 H110       26.0008    1.3639   -6.9631 H         1 UNK         0.2983 
    111 H111       25.1038    2.7224   -9.2873 H         1 UNK         0.0947 
    112 H112       25.7549    0.6066  -10.4477 H         1 UNK         0.0806 
    113 H113       24.8810    0.2666   -8.9646 H         1 UNK         0.0806 
    114 H114       26.6335    0.0763   -9.0215 H         1 UNK         0.0806 
    115 H115       28.2690    2.5756   -7.9046 H         1 UNK         0.3000 
    116 H116       30.2129    3.4522   -8.3076 H         1 UNK         0.0850 
    117 H117       30.4129    5.4893   -9.7017 H         1 UNK         0.0810 
    118 H118       28.9506    5.5446   -8.7296 H         1 UNK         0.0810 
    119 H119       28.8560    5.1707  -10.4499 H         1 UNK         0.0810 
    120 H120       28.7432    2.4632  -11.3799 H         1 UNK         0.3040 
    121 H121       31.2545    2.0518  -12.7897 H         1 UNK         0.0766 
    122 H122       29.7616    1.1617  -14.5689 H         1 UNK         0.0812 
    123 H123       29.1589    2.6952  -13.9645 H         1 UNK         0.0812 
    124 H124       28.3926    1.1881  -13.4640 H         1 UNK         0.0812 
    125 H125       31.7810    0.7899  -10.5855 H         1 UNK         0.3205 
    126 H126       32.3836   -1.8989  -11.2051 H         1 UNK         0.0754 
    127 H127       31.0168   -3.0610   -9.4504 H         1 UNK         0.0769 
    128 H128       29.9475   -2.3135  -10.6073 H         1 UNK         0.0769 
    129 H129       30.2022   -1.5488   -9.0463 H         1 UNK         0.0769 
    130 H130       32.3760   -2.4459   -8.1827 H         1 UNK         0.2981 
    131 H131       34.7482   -1.0334   -7.3958 H         1 UNK         0.0541 
    132 H132       31.4847    0.1119   -7.3200 H         1 UNK         0.3459 
    133 H133       31.7885    1.3452   -6.1252 H         1 UNK         0.3459 
    134 H134       34.0252   -2.2238   -5.0515 H         1 UNK         0.0612 
    135 H135       34.8902   -3.0013   -6.3283 H         1 UNK         0.0612 
    136 H136       31.0004   -2.1277   -6.0793 H         1 UNK         0.0624 
    137 H137       30.3320   -3.7108   -5.8131 H         1 UNK         0.0624 
@<TRIPOS>BOND
     1    1    2 1    
     2    1   72 1    
     3    1   73 1    
     4    1   74 1    
     5    2    3 2    
     6    2    4 am   BACKBONE|DICT|INTERRES
     7    4    5 1    
     8    4   75 1    
     9    5    6 1    
    10    5   35 1    
    11    5   76 1    
    12    6    7 1    
    13    6   77 1    
    14    6   78 1    
    15    7    8 1    
    16    8    9 1    
    17    8   79 1    
    18    8   80 1    
    19    9   10 ar   
    20    9   14 ar   
    21   10   11 ar   
    22   10   81 1    
    23   11   12 ar   
    24   11   71 1    
    25   12   13 ar   
    26   12   82 1    
    27   13   14 ar   
    28   13   15 1    
    29   14   83 1    
    30   15   16 1    
    31   15   84 1    
    32   15   85 1    
    33   16   17 1    
    34   17   18 1    
    35   17   86 1    
    36   17   87 1    
    37   18   19 1    
    38   18   37 1    
    39   18   88 1    
    40   19   20 am   BACKBONE|DICT|INTERRES
    41   19   89 1    
    42   20   21 2    
    43   20   22 1    
    44   22   23 1    
    45   22   24 1    
    46   22   90 1    
    47   23   91 1    
    48   23   92 1    
    49   23   93 1    
    50   24   25 am   BACKBONE|DICT|INTERRES
    51   24   94 1    
    52   25   26 2    
    53   25   27 1    
    54   27   28 1    
    55   27   29 1    
    56   27   95 1    
    57   28   96 1    
    58   28   97 1    
    59   28   98 1    
    60   29   30 am   BACKBONE|DICT|INTERRES
    61   29   99 1    
    62   30   31 2    
    63   30   32 1    
    64   32   33 1    
    65   32   34 1    
    66   32  100 1    
    67   33  101 1    
    68   33  102 1    
    69   33  103 1    
    70   34   35 am   BACKBONE|DICT|INTERRES
    71   34  104 1    
    72   35   36 2    
    73   37   38 2    
    74   37   39 am   BACKBONE|DICT|INTERRES
    75   39   40 1    
    76   39  105 1    
    77   40   41 1    
    78   40   42 1    
    79   40  106 1    
    80   41  107 1    
    81   41  108 1    
    82   41  109 1    
    83   42   43 2    
    84   42   44 am   BACKBONE|DICT|INTERRES
    85   44   45 1    
    86   44  110 1    
    87   45   46 1    
    88   45   47 1    
    89   45  111 1    
    90   46  112 1    
    91   46  113 1    
    92   46  114 1    
    93   47   48 2    
    94   47   49 am   BACKBONE|DICT|INTERRES
    95   49   50 1    
    96   49  115 1    
    97   50   51 1    
    98   50   52 1    
    99   50  116 1    
   100   51  117 1    
   101   51  118 1    
   102   51  119 1    
   103   52   53 2    
   104   52   54 am   BACKBONE|DICT|INTERRES
   105   54   55 1    
   106   54  120 1    
   107   55   56 1    
   108   55   57 1    
   109   55  121 1    
   110   56  122 1    
   111   56  123 1    
   112   56  124 1    
   113   57   58 2    
   114   57   59 am   BACKBONE|DICT|INTERRES
   115   59   60 1    
   116   59  125 1    
   117   60   61 1    
   118   60   62 1    
   119   60  126 1    
   120   61  127 1    
   121   61  128 1    
   122   61  129 1    
   123   62   63 2    
   124   62   64 am   BACKBONE|DICT|INTERRES
   125   64   65 1    
   126   64  130 1    
   127   65   66 1    
   128   65   69 1    
   129   65  131 1    
   130   66   67 am   BACKBONE|DICT|INTERRES
   131   66   68 2    
   132   67  132 1    
   133   67  133 1    
   134   69   70 1    
   135   69  134 1    
   136   69  135 1    
   137   70   71 1    
   138   71  136 1    
   139   71  137 1    
@<TRIPOS>SUBSTRUCTURE
     1 UNK         1 GROUP             0       ****    0 ROOT    
