@<TRIPOS>MOLECULE
3R137
137   139    1
SMALL
USER_CHARGES


@<TRIPOS>ATOM
      1 CA         29.7851    1.9973    0.5227 C.3       0 UNK        -0.2020 
      2 C          29.1827    0.9517   -0.4037 C.2       0 UNK         0.4855 
      3 O          28.6419    1.3035   -1.4520 O.2       0 UNK        -0.5197 
      4 N          29.2804   -0.3300   -0.0289 N.am      1 UNK        -0.4892 
      5 CA         28.7366   -1.4699   -0.7763 C.3       1 UNK         0.0835 
      6 C6         29.2845   -2.8158   -0.2492 C.3       12 UNK        -0.0855 
      7 S7         31.0957   -2.9250   -0.4505 S.3       12 UNK        -0.2931 
      8 C8         31.2932   -4.5100   -1.3220 C.3       12 UNK         0.0378 
      9 C9         30.9534   -4.4202   -2.8046 C.ar      12 UNK        -0.0802 
     10 C10        31.8987   -3.9298   -3.7109 C.ar      12 UNK        -0.0944 
     11 C11        31.6424   -3.9463   -5.0857 C.ar      12 UNK        -0.0787 
     12 C12        30.4178   -4.4384   -5.5518 C.ar      12 UNK        -0.0862 
     13 C13        29.4630   -4.9298   -4.6550 C.ar      12 UNK        -0.0733 
     14 C14        29.7329   -4.9075   -3.2827 C.ar      12 UNK        -0.0832 
     15 C15        28.1737   -5.5622   -5.1618 C.3       12 UNK         0.0240 
     16 S16        26.8543   -4.3373   -5.4120 S.3       12 UNK        -0.2522 
     17 C17        26.8695   -4.1398   -7.2324 C.3       12 UNK        -0.0967 
     18 CA         26.4004   -2.7496   -7.7398 C.3       5 UNK         0.0660 
     19 N          25.1210   -2.3307   -7.1653 N.am      5 UNK        -0.4015 
     20 C          23.9335   -2.4961   -7.7651 C.2       4 UNK         0.4946 
     21 O          23.7991   -2.9828   -8.8893 O.2       4 UNK        -0.5353 
     22 CA         22.6643   -2.0755   -6.9964 C.3       4 UNK         0.0277 
     23 CB         21.9123   -3.3181   -6.4902 C.3       4 UNK        -0.1981 
     24 N          22.9151   -1.1843   -5.8634 N.am      4 UNK        -0.4209 
     25 C          23.3477    0.0800   -5.9554 C.2       3 UNK         0.4942 
     26 O          23.5169    0.6671   -7.0234 O.2       3 UNK        -0.5208 
     27 CA         23.6834    0.8028   -4.6369 C.3       3 UNK         0.0250 
     28 CB         22.5562    1.7759   -4.2562 C.3       3 UNK        -0.1990 
     29 N          23.9661   -0.0829   -3.4977 N.am      3 UNK        -0.4232 
     30 C          24.9634   -0.9765   -3.4483 C.2       2 UNK         0.4993 
     31 O          25.7037   -1.2299   -4.4024 O.2       2 UNK        -0.5286 
     32 CA         25.1495   -1.7442   -2.1378 C.3       2 UNK         0.0209 
     33 CB         24.5479   -3.1548   -2.2481 C.3       2 UNK        -0.1931 
     34 N          26.5848   -1.8451   -1.8883 N.am      2 UNK        -0.4546 
     35 C          27.1942   -1.4575   -0.7628 C.2       1 UNK         0.5154 
     36 O          26.5941   -1.1130    0.2595 O.2       1 UNK        -0.5181 
     37 C          27.4722   -1.6658   -7.5634 C.2       5 UNK         0.5014 
     38 O          28.0330   -1.2021   -8.5567 O.2       5 UNK        -0.5248 
     39 N          27.7450   -1.2762   -6.3137 N.am      6 UNK        -0.4434 
     40 CA         28.8790   -0.4367   -5.9338 C.3       6 UNK         0.0363 
     41 CB         29.0393   -0.4544   -4.4102 C.3       6 UNK        -0.1936 
     42 C          28.8038    0.9986   -6.4608 C.2       6 UNK         0.5081 
     43 O          29.8428    1.5598   -6.8058 O.2       6 UNK        -0.5248 
     44 N          27.5890    1.5554   -6.5462 N.am      7 UNK        -0.4718 
     45 CA         27.3462    2.8861   -7.1097 C.3       7 UNK         0.0273 
     46 CB         25.9612    3.3879   -6.6729 C.3       7 UNK        -0.1935 
     47 C          27.4764    2.9159   -8.6428 C.2       7 UNK         0.5018 
     48 O          27.8462    3.9531   -9.1930 O.2       7 UNK        -0.5186 
     49 N          27.1786    1.7865   -9.3005 N.am      8 UNK        -0.4240 
     50 CA         27.2922    1.6177  -10.7493 C.3       8 UNK         0.0235 
     51 CB         26.3405    0.5029  -11.2158 C.3       8 UNK        -0.2000 
     52 C          28.7387    1.3182  -11.1686 C.2       8 UNK         0.4941 
     53 O          29.2384    1.9356  -12.1095 O.2       8 UNK        -0.5273 
     54 N          29.3857    0.3839  -10.4589 N.am      9 UNK        -0.4262 
     55 CA         30.7641   -0.0466  -10.7044 C.3       9 UNK         0.0264 
     56 CB         30.9515   -1.4528  -10.1137 C.3       9 UNK        -0.1955 
     57 C          31.8296    0.9247  -10.1610 C.2       9 UNK         0.5031 
     58 O          32.9919    0.7993  -10.5495 O.2       9 UNK        -0.5390 
     59 N          31.4257    1.8598   -9.2870 N.am      10 UNK        -0.4204 
     60 CA         32.2510    2.8500   -8.5842 C.3       10 UNK         0.0237 
     61 CB         32.9071    3.8400   -9.5713 C.3       10 UNK        -0.1985 
     62 C          33.2531    2.1817   -7.6239 C.2       10 UNK         0.4970 
     63 O          34.4513    2.4673   -7.6752 O.2       10 UNK        -0.4914 
     64 N          32.7326    1.2930   -6.7687 N.am      11 UNK        -0.4285 
     65 CA         33.5063    0.5376   -5.7673 C.3       11 UNK         0.1007 
     66 C          33.9233    1.3693   -4.5195 C.2       11 UNK         0.5703 
     67 N          33.3862    2.5647   -4.3033 N.am      11 UNK        -0.7361 
     68 O          34.7599    0.9241   -3.7375 O.2       11 UNK        -0.4986 
     69 C69        32.7909   -0.7724   -5.3424 C.3       12 UNK        -0.0947 
     70 S70        32.4164   -1.8578   -6.7580 S.3       12 UNK        -0.2240 
     71 C71        32.7204   -3.5118   -6.0708 C.3       12 UNK         0.0194 
     72 H72        29.0138    2.6908    0.8566 H         1 UNK         0.0906 
     73 H73        30.2418    1.5476    1.4043 H         1 UNK         0.0906 
     74 H74        30.5513    2.5666   -0.0029 H         1 UNK         0.0906 
     75 H75        29.7304   -0.5613    0.8451 H         1 UNK         0.3140 
     76 H76        29.0650   -1.3589   -1.8086 H         1 UNK         0.1085 
     77 H77        29.0425   -2.9450    0.8076 H         1 UNK         0.0836 
     78 H78        28.8122   -3.6501   -0.7701 H         1 UNK         0.0836 
     79 H79        32.3292   -4.8349   -1.2140 H         1 UNK         0.0731 
     80 H80        30.6906   -5.2755   -0.8304 H         1 UNK         0.0731 
     81 H81        32.8513   -3.5709   -3.3456 H         1 UNK         0.1312 
     82 H82        30.2239   -4.4692   -6.6152 H         1 UNK         0.1406 
     83 H83        29.0070   -5.3114   -2.5900 H         1 UNK         0.1631 
     84 H84        28.3607   -6.1161   -6.0829 H         1 UNK         0.0717 
     85 H85        27.8186   -6.3022   -4.4430 H         1 UNK         0.0717 
     86 H86        27.8646   -4.3651   -7.6210 H         1 UNK         0.0934 
     87 H87        26.2152   -4.9083   -7.6466 H         1 UNK         0.0934 
     88 H88        26.2816   -2.8402   -8.8220 H         1 UNK         0.0739 
     89 H89        25.1568   -1.9293   -6.2340 H         1 UNK         0.3093 
     90 H90        22.0200   -1.5472   -7.7025 H         1 UNK         0.0818 
     91 H91        20.9707   -3.0468   -6.0123 H         1 UNK         0.0819 
     92 H92        21.6716   -3.9919   -7.3138 H         1 UNK         0.0819 
     93 H93        22.5060   -3.8837   -5.7706 H         1 UNK         0.0819 
     94 H94        22.8026   -1.5793   -4.9415 H         1 UNK         0.3041 
     95 H95        24.5875    1.3863   -4.8193 H         1 UNK         0.0784 
     96 H96        22.3458    2.4688   -5.0725 H         1 UNK         0.0793 
     97 H97        21.6283    1.2499   -4.0280 H         1 UNK         0.0793 
     98 H98        22.8259    2.3772   -3.3877 H         1 UNK         0.0793 
     99 H99        23.3888    0.0477   -2.6788 H         1 UNK         0.3024 
    100 H100       24.6509   -1.2008   -1.3317 H         1 UNK         0.1171 
    101 H101       24.6950   -3.7187   -1.3270 H         1 UNK         0.0786 
    102 H102       23.4739   -3.1102   -2.4330 H         1 UNK         0.0786 
    103 H103       24.9967   -3.7248   -3.0625 H         1 UNK         0.0786 
    104 H104       27.1340   -2.0813   -2.7039 H         1 UNK         0.2977 
    105 H105       27.1691   -1.6272   -5.5530 H         1 UNK         0.3127 
    106 H106       29.7701   -0.8861   -6.3715 H         1 UNK         0.0770 
    107 H107       28.1263   -0.1409   -3.9039 H         1 UNK         0.0814 
    108 H108       29.8295    0.2221   -4.0825 H         1 UNK         0.0814 
    109 H109       29.3024   -1.4559   -4.0695 H         1 UNK         0.0814 
    110 H110       26.7901    1.0210   -6.2364 H         1 UNK         0.2983 
    111 H111       28.0961    3.5706   -6.7057 H         1 UNK         0.0947 
    112 H112       25.7803    4.3981   -7.0429 H         1 UNK         0.0806 
    113 H113       25.8744    3.4230   -5.5870 H         1 UNK         0.0806 
    114 H114       25.1615    2.7553   -7.0580 H         1 UNK         0.0806 
    115 H115       26.9247    0.9698   -8.7631 H         1 UNK         0.3000 
    116 H116       26.9867    2.5459  -11.2379 H         1 UNK         0.0850 
    117 H117       26.3961    0.3719  -12.2974 H         1 UNK         0.0810 
    118 H118       25.3047    0.7398  -10.9718 H         1 UNK         0.0810 
    119 H119       26.5790   -0.4583  -10.7592 H         1 UNK         0.0810 
    120 H120       28.8819   -0.1143   -9.7251 H         1 UNK         0.3040 
    121 H121       30.9177   -0.1139  -11.7836 H         1 UNK         0.0766 
    122 H122       30.3041   -2.1778  -10.6069 H         1 UNK         0.0812 
    123 H123       30.7164   -1.4709   -9.0501 H         1 UNK         0.0812 
    124 H124       31.9788   -1.8008  -10.2302 H         1 UNK         0.0812 
    125 H125       30.4615    1.8199   -8.9825 H         1 UNK         0.3205 
    126 H126       31.5668    3.4249   -7.9582 H         1 UNK         0.0754 
    127 H127       33.4173    4.6414   -9.0357 H         1 UNK         0.0769 
    128 H128       32.1629    4.3047  -10.2181 H         1 UNK         0.0769 
    129 H129       33.6476    3.3541  -10.2072 H         1 UNK         0.0769 
    130 H130       31.7258    1.1579   -6.7677 H         1 UNK         0.2981 
    131 H131       34.4432    0.2435   -6.2444 H         1 UNK         0.0541 
    132 H132       32.6973    2.9371   -4.9363 H         1 UNK         0.3459 
    133 H133       33.6708    3.0948   -3.4951 H         1 UNK         0.3459 
    134 H134       31.8608   -0.5528   -4.8209 H         1 UNK         0.0612 
    135 H135       33.4111   -1.3261   -4.6354 H         1 UNK         0.0612 
    136 H136       32.7585   -4.2249   -6.8954 H         1 UNK         0.0624 
    137 H137       33.7073   -3.5373   -5.6063 H         1 UNK         0.0624 
@<TRIPOS>BOND
     1    1    2 1    
     2    1   72 1    
     3    1   73 1    
     4    1   74 1    
     5    2    3 2    
     6    2    4 am   BACKBONE|DICT|INTERRES
     7    4    5 1    
     8    4   75 1    
     9    5    6 1    
    10    5   35 1    
    11    5   76 1    
    12    6    7 1    
    13    6   77 1    
    14    6   78 1    
    15    7    8 1    
    16    8    9 1    
    17    8   79 1    
    18    8   80 1    
    19    9   10 ar   
    20    9   14 ar   
    21   10   11 ar   
    22   10   81 1    
    23   11   12 ar   
    24   11   71 1    
    25   12   13 ar   
    26   12   82 1    
    27   13   14 ar   
    28   13   15 1    
    29   14   83 1    
    30   15   16 1    
    31   15   84 1    
    32   15   85 1    
    33   16   17 1    
    34   17   18 1    
    35   17   86 1    
    36   17   87 1    
    37   18   19 1    
    38   18   37 1    
    39   18   88 1    
    40   19   20 am   BACKBONE|DICT|INTERRES
    41   19   89 1    
    42   20   21 2    
    43   20   22 1    
    44   22   23 1    
    45   22   24 1    
    46   22   90 1    
    47   23   91 1    
    48   23   92 1    
    49   23   93 1    
    50   24   25 am   BACKBONE|DICT|INTERRES
    51   24   94 1    
    52   25   26 2    
    53   25   27 1    
    54   27   28 1    
    55   27   29 1    
    56   27   95 1    
    57   28   96 1    
    58   28   97 1    
    59   28   98 1    
    60   29   30 am   BACKBONE|DICT|INTERRES
    61   29   99 1    
    62   30   31 2    
    63   30   32 1    
    64   32   33 1    
    65   32   34 1    
    66   32  100 1    
    67   33  101 1    
    68   33  102 1    
    69   33  103 1    
    70   34   35 am   BACKBONE|DICT|INTERRES
    71   34  104 1    
    72   35   36 2    
    73   37   38 2    
    74   37   39 am   BACKBONE|DICT|INTERRES
    75   39   40 1    
    76   39  105 1    
    77   40   41 1    
    78   40   42 1    
    79   40  106 1    
    80   41  107 1    
    81   41  108 1    
    82   41  109 1    
    83   42   43 2    
    84   42   44 am   BACKBONE|DICT|INTERRES
    85   44   45 1    
    86   44  110 1    
    87   45   46 1    
    88   45   47 1    
    89   45  111 1    
    90   46  112 1    
    91   46  113 1    
    92   46  114 1    
    93   47   48 2    
    94   47   49 am   BACKBONE|DICT|INTERRES
    95   49   50 1    
    96   49  115 1    
    97   50   51 1    
    98   50   52 1    
    99   50  116 1    
   100   51  117 1    
   101   51  118 1    
   102   51  119 1    
   103   52   53 2    
   104   52   54 am   BACKBONE|DICT|INTERRES
   105   54   55 1    
   106   54  120 1    
   107   55   56 1    
   108   55   57 1    
   109   55  121 1    
   110   56  122 1    
   111   56  123 1    
   112   56  124 1    
   113   57   58 2    
   114   57   59 am   BACKBONE|DICT|INTERRES
   115   59   60 1    
   116   59  125 1    
   117   60   61 1    
   118   60   62 1    
   119   60  126 1    
   120   61  127 1    
   121   61  128 1    
   122   61  129 1    
   123   62   63 2    
   124   62   64 am   BACKBONE|DICT|INTERRES
   125   64   65 1    
   126   64  130 1    
   127   65   66 1    
   128   65   69 1    
   129   65  131 1    
   130   66   67 am   BACKBONE|DICT|INTERRES
   131   66   68 2    
   132   67  132 1    
   133   67  133 1    
   134   69   70 1    
   135   69  134 1    
   136   69  135 1    
   137   70   71 1    
   138   71  136 1    
   139   71  137 1    
@<TRIPOS>SUBSTRUCTURE
     1 UNK         1 GROUP             0       ****    0 ROOT    
