@<TRIPOS>MOLECULE
3R137
137   139    1
SMALL
USER_CHARGES


@<TRIPOS>ATOM
      1 CA         28.5545   -5.8742   -0.1259 C.3       0 UNK        -0.2020 
      2 C          27.9486   -4.6595    0.5612 C.2       0 UNK         0.4855 
      3 O          27.1806   -4.8113    1.5111 O.2       0 UNK        -0.5197 
      4 N          28.2861   -3.4536    0.0861 N.am      1 UNK        -0.4892 
      5 CA         27.7845   -2.1727    0.6028 C.3       1 UNK         0.0835 
      6 C6         28.7346   -1.0021    0.2329 C.3       12 UNK        -0.0855 
      7 S7         28.8545   -0.6830   -1.5623 S.3       12 UNK        -0.2931 
      8 C8         30.4291   -1.4737   -2.0078 C.3       12 UNK         0.0378 
      9 C9         30.3679   -1.9747   -3.4414 C.ar      12 UNK        -0.0802 
     10 C10        30.8614   -1.1943   -4.4914 C.ar      12 UNK        -0.0944 
     11 C11        30.7718   -1.6487   -5.8112 C.ar      12 UNK        -0.0787 
     12 C12        30.1973   -2.8958   -6.0737 C.ar      12 UNK        -0.0862 
     13 C13        29.6974   -3.6824   -5.0323 C.ar      12 UNK        -0.0733 
     14 C14        29.7900   -3.2171   -3.7185 C.ar      12 UNK        -0.0832 
     15 C15        29.0630   -5.0380   -5.3163 C.3       12 UNK         0.0240 
     16 S16        27.6456   -4.9423   -6.4578 S.3       12 UNK        -0.2522 
     17 C17        26.4893   -3.8340   -5.5813 C.3       12 UNK        -0.0967 
     18 CA         25.9516   -2.7223   -6.5181 C.3       5 UNK         0.0660 
     19 N          24.6316   -2.2461   -6.1048 N.am      5 UNK        -0.4015 
     20 C          23.6930   -1.7914   -6.9479 C.2       4 UNK         0.4946 
     21 O          23.7998   -1.8192   -8.1743 O.2       4 UNK        -0.5353 
     22 CA         22.4142   -1.1966   -6.3295 C.3       4 UNK         0.0277 
     23 CB         21.3088   -2.2623   -6.2539 C.3       4 UNK        -0.1981 
     24 N          22.6197   -0.6182   -4.9995 N.am      4 UNK        -0.4209 
     25 C          23.3705    0.4630   -4.7456 C.2       3 UNK         0.4942 
     26 O          23.9410    1.1212   -5.6149 O.2       3 UNK        -0.5208 
     27 CA         23.5583    0.8389   -3.2651 C.3       3 UNK         0.0250 
     28 CB         22.4321    1.7768   -2.8025 C.3       3 UNK        -0.1990 
     29 N          23.6431   -0.3134   -2.3578 N.am      3 UNK        -0.4232 
     30 C          24.5431   -1.3027   -2.4496 C.2       2 UNK         0.4993 
     31 O          25.3698   -1.4002   -3.3608 O.2       2 UNK        -0.5286 
     32 CA         24.4760   -2.4030   -1.3842 C.3       2 UNK         0.0209 
     33 CB         23.9888   -3.7221   -2.0071 C.3       2 UNK        -0.1931 
     34 N          25.8016   -2.6064   -0.8063 N.am      2 UNK        -0.4546 
     35 C          26.3180   -1.8843    0.1985 C.2       1 UNK         0.5154 
     36 O          25.6845   -1.0176    0.8042 O.2       1 UNK        -0.5181 
     37 C          26.9175   -1.5300   -6.6497 C.2       5 UNK         0.5014 
     38 O          27.6083   -1.4239   -7.6643 O.2       5 UNK        -0.5248 
     39 N          26.8971   -0.6195   -5.6602 N.am      6 UNK        -0.4434 
     40 CA         27.6916    0.6158   -5.6141 C.3       6 UNK         0.0363 
     41 CB         27.3299    1.4181   -4.3557 C.3       6 UNK        -0.1936 
     42 C          27.5342    1.5047   -6.8585 C.2       6 UNK         0.5081 
     43 O          28.5140    2.1040   -7.3022 O.2       6 UNK        -0.5248 
     44 N          26.3191    1.5245   -7.4253 N.am      7 UNK        -0.4718 
     45 CA         25.9435    2.2022   -8.6690 C.3       7 UNK         0.0273 
     46 CB         24.4452    1.9697   -8.9243 C.3       7 UNK        -0.1935 
     47 C          26.7650    1.8090   -9.9141 C.2       7 UNK         0.5018 
     48 O          26.7613    2.5720  -10.8812 O.2       7 UNK        -0.5186 
     49 N          27.4637    0.6617   -9.8839 N.am      8 UNK        -0.4240 
     50 CA         28.4220    0.2600  -10.9199 C.3       8 UNK         0.0235 
     51 CB         28.8253   -1.2086  -10.7122 C.3       8 UNK        -0.2000 
     52 C          29.6703    1.1646  -10.9743 C.2       8 UNK         0.4941 
     53 O          30.2328    1.3256  -12.0588 O.2       8 UNK        -0.5273 
     54 N          30.0405    1.7562   -9.8248 N.am      9 UNK        -0.4262 
     55 CA         31.1327    2.7106   -9.5920 C.3       9 UNK         0.0264 
     56 CB         30.9021    3.9975  -10.4143 C.3       9 UNK        -0.1955 
     57 C          32.5518    2.1444   -9.8110 C.2       9 UNK         0.5031 
     58 O          32.7262    1.0338  -10.3152 O.2       9 UNK        -0.5390 
     59 N          33.5504    2.9443   -9.4033 N.am      10 UNK        -0.4204 
     60 CA         34.9983    2.7290   -9.5597 C.3       10 UNK         0.0237 
     61 CB         35.3923    2.7584  -11.0529 C.3       10 UNK        -0.1985 
     62 C          35.5606    1.4914   -8.8264 C.2       10 UNK         0.4970 
     63 O          36.6283    1.0014   -9.1997 O.2       10 UNK        -0.4914 
     64 N          34.8588    1.0210   -7.7876 N.am      11 UNK        -0.4285 
     65 CA         35.2514   -0.1412   -6.9712 C.3       11 UNK         0.1007 
     66 C          36.3272    0.1666   -5.8887 C.2       11 UNK         0.5703 
     67 N          36.6959    1.4200   -5.6494 N.am      11 UNK        -0.7361 
     68 O          36.8472   -0.7527   -5.2606 O.2       11 UNK        -0.4986 
     69 C69        34.0206   -0.8550   -6.3536 C.3       12 UNK        -0.0947 
     70 S70        32.8378   -1.4125   -7.6265 S.3       12 UNK        -0.2240 
     71 C71        31.2646   -0.7884   -6.9643 C.3       12 UNK         0.0194 
     72 H72        29.0842   -6.4898    0.6006 H         1 UNK         0.0906 
     73 H73        27.7692   -6.4804   -0.5769 H         1 UNK         0.0906 
     74 H74        29.2597   -5.5945   -0.9081 H         1 UNK         0.0906 
     75 H75        28.9226   -3.3807   -0.6922 H         1 UNK         0.3140 
     76 H76        27.7788   -2.2438    1.6931 H         1 UNK         0.1085 
     77 H77        28.3962   -0.0826    0.7144 H         1 UNK         0.0836 
     78 H78        29.7307   -1.1871    0.6383 H         1 UNK         0.0836 
     79 H79        31.2424   -0.7575   -1.8810 H         1 UNK         0.0731 
     80 H80        30.6448   -2.3062   -1.3370 H         1 UNK         0.0731 
     81 H81        31.2963   -0.2266   -4.2825 H         1 UNK         0.1312 
     82 H82        30.1205   -3.2452   -7.0944 H         1 UNK         0.1406 
     83 H83        29.4013   -3.8193   -2.9104 H         1 UNK         0.1631 
     84 H84        28.7339   -5.5178   -4.3933 H         1 UNK         0.0717 
     85 H85        29.8180   -5.6947   -5.7503 H         1 UNK         0.0717 
     86 H86        25.6657   -4.4595   -5.2336 H         1 UNK         0.0934 
     87 H87        26.9424   -3.4173   -4.6795 H         1 UNK         0.0934 
     88 H88        25.8445   -3.1560   -7.5153 H         1 UNK         0.0739 
     89 H89        24.4982   -2.1222   -5.1087 H         1 UNK         0.3093 
     90 H90        22.0751   -0.3967   -6.9916 H         1 UNK         0.0818 
     91 H91        20.3698   -1.8368   -5.8991 H         1 UNK         0.0819 
     92 H92        21.1149   -2.6928   -7.2375 H         1 UNK         0.0819 
     93 H93        21.5807   -3.0821   -5.5878 H         1 UNK         0.0819 
     94 H94        22.1820   -1.0899   -4.2216 H         1 UNK         0.3041 
     95 H95        24.5013    1.3804   -3.1820 H         1 UNK         0.0784 
     96 H96        22.3638    2.6526   -3.4497 H         1 UNK         0.0793 
     97 H97        21.4599    1.2827   -2.8193 H         1 UNK         0.0793 
     98 H98        22.6080    2.1397   -1.7896 H         1 UNK         0.0793 
     99 H99        22.9946   -0.3187   -1.5832 H         1 UNK         0.3024 
    100 H100       23.7776   -2.1115   -0.5961 H         1 UNK         0.1171 
    101 H101       22.9947   -3.6069   -2.4411 H         1 UNK         0.0786 
    102 H102       23.9246   -4.5119   -1.2583 H         1 UNK         0.0786 
    103 H103       24.6534   -4.0677   -2.8000 H         1 UNK         0.0786 
    104 H104       26.4092   -3.2579   -1.2794 H         1 UNK         0.2977 
    105 H105       26.3210   -0.8120   -4.8430 H         1 UNK         0.3127 
    106 H106       28.7378    0.3194   -5.5454 H         1 UNK         0.0770 
    107 H107       26.3573    1.8995   -4.4530 H         1 UNK         0.0814 
    108 H108       28.0631    2.2051   -4.1762 H         1 UNK         0.0814 
    109 H109       27.3019    0.7883   -3.4682 H         1 UNK         0.0814 
    110 H110       25.5684    1.0526   -6.9315 H         1 UNK         0.2983 
    111 H111       26.1040    3.2706   -8.5117 H         1 UNK         0.0947 
    112 H112       24.1172    2.4751   -9.8337 H         1 UNK         0.0806 
    113 H113       23.8380    2.3559   -8.1053 H         1 UNK         0.0806 
    114 H114       24.2177    0.9090   -9.0387 H         1 UNK         0.0806 
    115 H115       27.4113    0.0727   -9.0575 H         1 UNK         0.3000 
    116 H116       27.9187    0.3381  -11.8860 H         1 UNK         0.0850 
    117 H117       29.4900   -1.5458  -11.5086 H         1 UNK         0.0810 
    118 H118       27.9548   -1.8648  -10.7140 H         1 UNK         0.0810 
    119 H119       29.3508   -1.3537   -9.7683 H         1 UNK         0.0810 
    120 H120       29.4710    1.5741   -9.0039 H         1 UNK         0.3040 
    121 H121       31.0604    2.9715   -8.5349 H         1 UNK         0.0766 
    122 H122       31.5917    4.7900  -10.1227 H         1 UNK         0.0812 
    123 H123       29.8930    4.3837  -10.2683 H         1 UNK         0.0812 
    124 H124       31.0417    3.8260  -11.4823 H         1 UNK         0.0812 
    125 H125       33.2975    3.8237   -8.9727 H         1 UNK         0.3205 
    126 H126       35.4771    3.5865   -9.0847 H         1 UNK         0.0754 
    127 H127       36.4762    2.7582  -11.1759 H         1 UNK         0.0769 
    128 H128       35.0144    3.6543  -11.5456 H         1 UNK         0.0769 
    129 H129       35.0043    1.8919  -11.5897 H         1 UNK         0.0769 
    130 H130       33.9919    1.4712   -7.5396 H         1 UNK         0.2981 
    131 H131       35.7242   -0.8630   -7.6402 H         1 UNK         0.0541 
    132 H132       36.2811    2.1826   -6.1596 H         1 UNK         0.3459 
    133 H133       37.3980    1.6024   -4.9497 H         1 UNK         0.3459 
    134 H134       33.5207   -0.1956   -5.6425 H         1 UNK         0.0612 
    135 H135       34.3269   -1.7369   -5.7880 H         1 UNK         0.0612 
    136 H136       31.3733    0.2546   -6.6631 H         1 UNK         0.0624 
    137 H137       30.5190   -0.7951   -7.7601 H         1 UNK         0.0624 
@<TRIPOS>BOND
     1    1    2 1    
     2    1   72 1    
     3    1   73 1    
     4    1   74 1    
     5    2    3 2    
     6    2    4 am   BACKBONE|DICT|INTERRES
     7    4    5 1    
     8    4   75 1    
     9    5    6 1    
    10    5   35 1    
    11    5   76 1    
    12    6    7 1    
    13    6   77 1    
    14    6   78 1    
    15    7    8 1    
    16    8    9 1    
    17    8   79 1    
    18    8   80 1    
    19    9   10 ar   
    20    9   14 ar   
    21   10   11 ar   
    22   10   81 1    
    23   11   12 ar   
    24   11   71 1    
    25   12   13 ar   
    26   12   82 1    
    27   13   14 ar   
    28   13   15 1    
    29   14   83 1    
    30   15   16 1    
    31   15   84 1    
    32   15   85 1    
    33   16   17 1    
    34   17   18 1    
    35   17   86 1    
    36   17   87 1    
    37   18   19 1    
    38   18   37 1    
    39   18   88 1    
    40   19   20 am   BACKBONE|DICT|INTERRES
    41   19   89 1    
    42   20   21 2    
    43   20   22 1    
    44   22   23 1    
    45   22   24 1    
    46   22   90 1    
    47   23   91 1    
    48   23   92 1    
    49   23   93 1    
    50   24   25 am   BACKBONE|DICT|INTERRES
    51   24   94 1    
    52   25   26 2    
    53   25   27 1    
    54   27   28 1    
    55   27   29 1    
    56   27   95 1    
    57   28   96 1    
    58   28   97 1    
    59   28   98 1    
    60   29   30 am   BACKBONE|DICT|INTERRES
    61   29   99 1    
    62   30   31 2    
    63   30   32 1    
    64   32   33 1    
    65   32   34 1    
    66   32  100 1    
    67   33  101 1    
    68   33  102 1    
    69   33  103 1    
    70   34   35 am   BACKBONE|DICT|INTERRES
    71   34  104 1    
    72   35   36 2    
    73   37   38 2    
    74   37   39 am   BACKBONE|DICT|INTERRES
    75   39   40 1    
    76   39  105 1    
    77   40   41 1    
    78   40   42 1    
    79   40  106 1    
    80   41  107 1    
    81   41  108 1    
    82   41  109 1    
    83   42   43 2    
    84   42   44 am   BACKBONE|DICT|INTERRES
    85   44   45 1    
    86   44  110 1    
    87   45   46 1    
    88   45   47 1    
    89   45  111 1    
    90   46  112 1    
    91   46  113 1    
    92   46  114 1    
    93   47   48 2    
    94   47   49 am   BACKBONE|DICT|INTERRES
    95   49   50 1    
    96   49  115 1    
    97   50   51 1    
    98   50   52 1    
    99   50  116 1    
   100   51  117 1    
   101   51  118 1    
   102   51  119 1    
   103   52   53 2    
   104   52   54 am   BACKBONE|DICT|INTERRES
   105   54   55 1    
   106   54  120 1    
   107   55   56 1    
   108   55   57 1    
   109   55  121 1    
   110   56  122 1    
   111   56  123 1    
   112   56  124 1    
   113   57   58 2    
   114   57   59 am   BACKBONE|DICT|INTERRES
   115   59   60 1    
   116   59  125 1    
   117   60   61 1    
   118   60   62 1    
   119   60  126 1    
   120   61  127 1    
   121   61  128 1    
   122   61  129 1    
   123   62   63 2    
   124   62   64 am   BACKBONE|DICT|INTERRES
   125   64   65 1    
   126   64  130 1    
   127   65   66 1    
   128   65   69 1    
   129   65  131 1    
   130   66   67 am   BACKBONE|DICT|INTERRES
   131   66   68 2    
   132   67  132 1    
   133   67  133 1    
   134   69   70 1    
   135   69  134 1    
   136   69  135 1    
   137   70   71 1    
   138   71  136 1    
   139   71  137 1    
@<TRIPOS>SUBSTRUCTURE
     1 UNK         1 GROUP             0       ****    0 ROOT    
