@<TRIPOS>MOLECULE
3R137
137   139    1
SMALL
USER_CHARGES


@<TRIPOS>ATOM
      1 CA         27.3602   -5.5248   -8.5612 C.3       0 UNK        -0.2020 
      2 C          26.8489   -5.5192   -7.1280 C.2       0 UNK         0.4855 
      3 O          25.9675   -6.3104   -6.7908 O.2       0 UNK        -0.5197 
      4 N          27.4105   -4.6510   -6.2787 N.am      1 UNK        -0.4892 
      5 CA         27.0683   -4.5310   -4.8583 C.3       1 UNK         0.0835 
      6 C6         28.1606   -3.7670   -4.0751 C.3       12 UNK        -0.0855 
      7 S7         29.7562   -4.6534   -4.1042 S.3       12 UNK        -0.2931 
      8 C8         30.5038   -4.1301   -2.5301 C.3       12 UNK         0.0378 
      9 C9         30.8533   -2.6486   -2.5321 C.ar      12 UNK        -0.0802 
     10 C10        32.0348   -2.2047   -3.1306 C.ar      12 UNK        -0.0944 
     11 C11        32.3764   -0.8491   -3.1142 C.ar      12 UNK        -0.0787 
     12 C12        31.5185    0.0638   -2.4886 C.ar      12 UNK        -0.0862 
     13 C13        30.3241   -0.3605   -1.8952 C.ar      12 UNK        -0.0733 
     14 C14        30.0073   -1.7252   -1.9136 C.ar      12 UNK        -0.0832 
     15 C15        29.4360    0.6669   -1.1900 C.3       12 UNK         0.0240 
     16 S16        27.6717    0.2033   -1.0726 S.3       12 UNK        -0.2522 
     17 C17        26.9271    0.9525   -2.5574 C.3       12 UNK        -0.0967 
     18 CA         27.0042    0.0447   -3.8274 C.3       5 UNK         0.0660 
     19 N          25.7334    0.0162   -4.5500 N.am      5 UNK        -0.4015 
     20 C          25.1713    1.0424   -5.2054 C.2       4 UNK         0.4946 
     21 O          25.7212    2.1305   -5.3857 O.2       4 UNK        -0.5353 
     22 CA         23.7332    0.8332   -5.7093 C.3       4 UNK         0.0277 
     23 CB         23.7298    0.1743   -7.0953 C.3       4 UNK        -0.1981 
     24 N          22.9286    0.0247   -4.7896 N.am      4 UNK        -0.4209 
     25 C          22.5670    0.3969   -3.5520 C.2       3 UNK         0.4942 
     26 O          22.7793    1.5154   -3.0826 O.2       3 UNK        -0.5208 
     27 CA         21.8568   -0.6578   -2.6829 C.3       3 UNK         0.0250 
     28 CB         20.3340   -0.4480   -2.7191 C.3       3 UNK        -0.1990 
     29 N          22.1638   -2.0394   -3.0699 N.am      3 UNK        -0.4232 
     30 C          23.3602   -2.6286   -2.9292 C.2       2 UNK         0.4993 
     31 O          24.3295   -2.0782   -2.4025 O.2       2 UNK        -0.5286 
     32 CA         23.4885   -4.0740   -3.4561 C.3       2 UNK         0.0209 
     33 CB         22.5681   -4.3683   -4.6645 C.3       2 UNK        -0.1931 
     34 N          24.8719   -4.4547   -3.7766 N.am      2 UNK        -0.4546 
     35 C          25.6830   -3.8758   -4.6754 C.2       1 UNK         0.5154 
     36 O          25.3853   -2.8725   -5.3305 O.2       1 UNK        -0.5181 
     37 C          28.1573    0.3512   -4.8092 C.2       5 UNK         0.5014 
     38 O          28.3509   -0.4056   -5.7654 O.2       5 UNK        -0.5248 
     39 N          28.8613    1.4730   -4.6062 N.am      6 UNK        -0.4434 
     40 CA         29.9681    1.9455   -5.4358 C.3       6 UNK         0.0363 
     41 CB         30.5743    3.2110   -4.8100 C.3       6 UNK        -0.1936 
     42 C          29.6050    2.1970   -6.9070 C.2       6 UNK         0.5081 
     43 O          30.4755    2.0502   -7.7650 O.2       6 UNK        -0.5248 
     44 N          28.3375    2.5380   -7.1836 N.am      7 UNK        -0.4718 
     45 CA         27.8280    2.7480   -8.5409 C.3       7 UNK         0.0273 
     46 CB         26.4673    3.4594   -8.4775 C.3       7 UNK        -0.1935 
     47 C          27.7206    1.4459   -9.3530 C.2       7 UNK         0.5018 
     48 O          27.8500    1.4955  -10.5764 O.2       7 UNK        -0.5186 
     49 N          27.4977    0.3143   -8.6695 N.am      8 UNK        -0.4240 
     50 CA         27.4551   -1.0153   -9.2796 C.3       8 UNK         0.0235 
     51 CB         26.3859   -1.8698   -8.5881 C.3       8 UNK        -0.2000 
     52 C          28.8243   -1.7041   -9.2266 C.2       8 UNK         0.4941 
     53 O          29.1896   -2.3816  -10.1872 O.2       8 UNK        -0.5273 
     54 N          29.5636   -1.5179   -8.1225 N.am      9 UNK        -0.4262 
     55 CA         30.9198   -2.0453   -7.9412 C.3       9 UNK         0.0264 
     56 CB         31.3143   -1.9215   -6.4637 C.3       9 UNK        -0.1955 
     57 C          31.9744   -1.3635   -8.8338 C.2       9 UNK         0.5031 
     58 O          33.0039   -1.9785   -9.1135 O.2       9 UNK        -0.5390 
     59 N          31.7062   -0.1152   -9.2485 N.am      10 UNK        -0.4204 
     60 CA         32.5402    0.7589  -10.0838 C.3       10 UNK         0.0237 
     61 CB         32.7956    0.1377  -11.4741 C.3       10 UNK        -0.1985 
     62 C          33.8320    1.2355   -9.3895 C.2       10 UNK         0.4970 
     63 O          34.7724    1.6474  -10.0710 O.2       10 UNK        -0.4914 
     64 N          33.8488    1.2006   -8.0516 N.am      11 UNK        -0.4285 
     65 CA         34.9302    1.7207   -7.2014 C.3       11 UNK         0.1007 
     66 C          34.8979    3.2649   -7.0011 C.2       11 UNK         0.5703 
     67 N          33.8396    3.9660   -7.3943 N.am      11 UNK        -0.7361 
     68 O          35.8599    3.8382   -6.4953 O.2       11 UNK        -0.4986 
     69 C69        35.0133    0.9529   -5.8543 C.3       12 UNK        -0.0947 
     70 S70        33.4470    0.9761   -4.9225 S.3       12 UNK        -0.2240 
     71 C71        33.6873   -0.3903   -3.7462 C.3       12 UNK         0.0194 
     72 H72        27.7881   -6.4978   -8.8008 H         1 UNK         0.0906 
     73 H73        26.5414   -5.3353   -9.2546 H         1 UNK         0.0906 
     74 H74        28.1291   -4.7698   -8.7250 H         1 UNK         0.0906 
     75 H75        28.1260   -4.0178   -6.6034 H         1 UNK         0.3140 
     76 H76        27.0149   -5.5438   -4.4517 H         1 UNK         0.1085 
     77 H77        27.8538   -3.6246   -3.0371 H         1 UNK         0.0836 
     78 H78        28.3143   -2.7726   -4.4951 H         1 UNK         0.0836 
     79 H79        29.8296   -4.3701   -1.7064 H         1 UNK         0.0731 
     80 H80        31.4083   -4.7160   -2.3597 H         1 UNK         0.0731 
     81 H81        32.6905   -2.9216   -3.6057 H         1 UNK         0.1312 
     82 H82        31.7887    1.1103   -2.4602 H         1 UNK         0.1406 
     83 H83        29.1065   -2.0813   -1.4347 H         1 UNK         0.1631 
     84 H84        29.5233    1.6424   -1.6700 H         1 UNK         0.0717 
     85 H85        29.8171    0.7930   -0.1760 H         1 UNK         0.0717 
     86 H86        25.8787    1.0905   -2.2848 H         1 UNK         0.0934 
     87 H87        27.2851    1.9715   -2.7024 H         1 UNK         0.0934 
     88 H88        27.1534   -0.9843   -3.5004 H         1 UNK         0.0739 
     89 H89        25.2521   -0.8763   -4.5355 H         1 UNK         0.3093 
     90 H90        23.2690    1.8181   -5.7938 H         1 UNK         0.0818 
     91 H91        22.7314    0.1791   -7.5328 H         1 UNK         0.0819 
     92 H92        24.3893    0.7000   -7.7871 H         1 UNK         0.0819 
     93 H93        24.0638   -0.8617   -7.0381 H         1 UNK         0.0819 
     94 H94        22.7011   -0.9120   -5.0885 H         1 UNK         0.3041 
     95 H95        22.1978   -0.5137   -1.6552 H         1 UNK         0.0784 
     96 H96        20.0725    0.5644   -2.4074 H         1 UNK         0.0793 
     97 H97        19.9284   -0.5949   -3.7210 H         1 UNK         0.0793 
     98 H98        19.8220   -1.1341   -2.0440 H         1 UNK         0.0793 
     99 H99        21.4143   -2.5666   -3.4948 H         1 UNK         0.3024 
    100 H100       23.1774   -4.7200   -2.6332 H         1 UNK         0.1171 
    101 H101       22.7359   -5.3750   -5.0482 H         1 UNK         0.0786 
    102 H102       22.7405   -3.6724   -5.4867 H         1 UNK         0.0786 
    103 H103       21.5133   -4.3107   -4.3940 H         1 UNK         0.0786 
    104 H104       25.2275   -5.2446   -3.2562 H         1 UNK         0.2977 
    105 H105       28.6049    2.0625   -3.8298 H         1 UNK         0.3127 
    106 H106       30.7185    1.1587   -5.4249 H         1 UNK         0.0770 
    107 H107       29.8532    4.0283   -4.7704 H         1 UNK         0.0814 
    108 H108       31.4306    3.5588   -5.3900 H         1 UNK         0.0814 
    109 H109       30.9305    3.0244   -3.7973 H         1 UNK         0.0814 
    110 H110       27.6672    2.6036   -6.4255 H         1 UNK         0.2983 
    111 H111       28.5284    3.4019   -9.0658 H         1 UNK         0.0947 
    112 H112       26.0970    3.6808   -9.4795 H         1 UNK         0.0806 
    113 H113       26.5382    4.4064   -7.9423 H         1 UNK         0.0806 
    114 H114       25.7129    2.8494   -7.9807 H         1 UNK         0.0806 
    115 H115       27.4567    0.3574   -7.6587 H         1 UNK         0.3000 
    116 H116       27.1751   -0.9306  -10.3322 H         1 UNK         0.0850 
    117 H117       26.3909   -2.8893   -8.9707 H         1 UNK         0.0810 
    118 H118       25.3915   -1.4720   -8.7812 H         1 UNK         0.0810 
    119 H119       26.5362   -1.9175   -7.5092 H         1 UNK         0.0810 
    120 H120       29.1627   -1.0090   -7.3366 H         1 UNK         0.3040 
    121 H121       30.9053   -3.1059   -8.2009 H         1 UNK         0.0766 
    122 H122       32.2863   -2.3794   -6.2766 H         1 UNK         0.0812 
    123 H123       30.5913   -2.4145   -5.8158 H         1 UNK         0.0812 
    124 H124       31.3794   -0.8817   -6.1500 H         1 UNK         0.0812 
    125 H125       30.8737    0.3327   -8.8802 H         1 UNK         0.3205 
    126 H126       31.9460    1.6607  -10.2393 H         1 UNK         0.0754 
    127 H127       33.2594    0.8603  -12.1467 H         1 UNK         0.0769 
    128 H128       31.8648   -0.1854  -11.9404 H         1 UNK         0.0769 
    129 H129       33.4607   -0.7244  -11.4182 H         1 UNK         0.0769 
    130 H130       33.0247    0.8812   -7.5645 H         1 UNK         0.2981 
    131 H131       35.8703    1.5252   -7.7205 H         1 UNK         0.0541 
    132 H132       33.0415    3.5032   -7.7995 H         1 UNK         0.3459 
    133 H133       33.8357    4.9654   -7.2670 H         1 UNK         0.3459 
    134 H134       35.8094    1.3497   -5.2218 H         1 UNK         0.0612 
    135 H135       35.2799   -0.0859   -6.0544 H         1 UNK         0.0612 
    136 H136       34.1669   -1.2217   -4.2649 H         1 UNK         0.0624 
    137 H137       34.3747   -0.0710   -2.9620 H         1 UNK         0.0624 
@<TRIPOS>BOND
     1    1    2 1    
     2    1   72 1    
     3    1   73 1    
     4    1   74 1    
     5    2    3 2    
     6    2    4 am   BACKBONE|DICT|INTERRES
     7    4    5 1    
     8    4   75 1    
     9    5    6 1    
    10    5   35 1    
    11    5   76 1    
    12    6    7 1    
    13    6   77 1    
    14    6   78 1    
    15    7    8 1    
    16    8    9 1    
    17    8   79 1    
    18    8   80 1    
    19    9   10 ar   
    20    9   14 ar   
    21   10   11 ar   
    22   10   81 1    
    23   11   12 ar   
    24   11   71 1    
    25   12   13 ar   
    26   12   82 1    
    27   13   14 ar   
    28   13   15 1    
    29   14   83 1    
    30   15   16 1    
    31   15   84 1    
    32   15   85 1    
    33   16   17 1    
    34   17   18 1    
    35   17   86 1    
    36   17   87 1    
    37   18   19 1    
    38   18   37 1    
    39   18   88 1    
    40   19   20 am   BACKBONE|DICT|INTERRES
    41   19   89 1    
    42   20   21 2    
    43   20   22 1    
    44   22   23 1    
    45   22   24 1    
    46   22   90 1    
    47   23   91 1    
    48   23   92 1    
    49   23   93 1    
    50   24   25 am   BACKBONE|DICT|INTERRES
    51   24   94 1    
    52   25   26 2    
    53   25   27 1    
    54   27   28 1    
    55   27   29 1    
    56   27   95 1    
    57   28   96 1    
    58   28   97 1    
    59   28   98 1    
    60   29   30 am   BACKBONE|DICT|INTERRES
    61   29   99 1    
    62   30   31 2    
    63   30   32 1    
    64   32   33 1    
    65   32   34 1    
    66   32  100 1    
    67   33  101 1    
    68   33  102 1    
    69   33  103 1    
    70   34   35 am   BACKBONE|DICT|INTERRES
    71   34  104 1    
    72   35   36 2    
    73   37   38 2    
    74   37   39 am   BACKBONE|DICT|INTERRES
    75   39   40 1    
    76   39  105 1    
    77   40   41 1    
    78   40   42 1    
    79   40  106 1    
    80   41  107 1    
    81   41  108 1    
    82   41  109 1    
    83   42   43 2    
    84   42   44 am   BACKBONE|DICT|INTERRES
    85   44   45 1    
    86   44  110 1    
    87   45   46 1    
    88   45   47 1    
    89   45  111 1    
    90   46  112 1    
    91   46  113 1    
    92   46  114 1    
    93   47   48 2    
    94   47   49 am   BACKBONE|DICT|INTERRES
    95   49   50 1    
    96   49  115 1    
    97   50   51 1    
    98   50   52 1    
    99   50  116 1    
   100   51  117 1    
   101   51  118 1    
   102   51  119 1    
   103   52   53 2    
   104   52   54 am   BACKBONE|DICT|INTERRES
   105   54   55 1    
   106   54  120 1    
   107   55   56 1    
   108   55   57 1    
   109   55  121 1    
   110   56  122 1    
   111   56  123 1    
   112   56  124 1    
   113   57   58 2    
   114   57   59 am   BACKBONE|DICT|INTERRES
   115   59   60 1    
   116   59  125 1    
   117   60   61 1    
   118   60   62 1    
   119   60  126 1    
   120   61  127 1    
   121   61  128 1    
   122   61  129 1    
   123   62   63 2    
   124   62   64 am   BACKBONE|DICT|INTERRES
   125   64   65 1    
   126   64  130 1    
   127   65   66 1    
   128   65   69 1    
   129   65  131 1    
   130   66   67 am   BACKBONE|DICT|INTERRES
   131   66   68 2    
   132   67  132 1    
   133   67  133 1    
   134   69   70 1    
   135   69  134 1    
   136   69  135 1    
   137   70   71 1    
   138   71  136 1    
   139   71  137 1    
@<TRIPOS>SUBSTRUCTURE
     1 UNK         1 GROUP             0       ****    0 ROOT    
