@<TRIPOS>MOLECULE
3R137
137   139    1
SMALL
USER_CHARGES


@<TRIPOS>ATOM
      1 CA         23.6780   -6.2710   -4.3857 C.3       0 UNK        -0.2020 
      2 C          24.8731   -5.3826   -4.0772 C.2       0 UNK         0.4855 
      3 O          25.2358   -4.5452   -4.9028 O.2       0 UNK        -0.5197 
      4 N          25.4734   -5.5492   -2.8891 N.am      1 UNK        -0.4892 
      5 CA         26.6495   -4.8177   -2.3945 C.3       1 UNK         0.0835 
      6 C6         27.9475   -5.2167   -3.1473 C.3       12 UNK        -0.0855 
      7 S7         29.4386   -5.0480   -2.1076 S.3       12 UNK        -0.2931 
      8 C8         30.6568   -4.3573   -3.2852 C.3       12 UNK         0.0378 
      9 C9         30.9864   -2.8686   -3.1351 C.ar      12 UNK        -0.0802 
     10 C10        31.9081   -2.3152   -4.0292 C.ar      12 UNK        -0.0944 
     11 C11        32.3015   -0.9775   -3.9282 C.ar      12 UNK        -0.0787 
     12 C12        31.7659   -0.1829   -2.9139 C.ar      12 UNK        -0.0862 
     13 C13        30.8294   -0.7084   -2.0209 C.ar      12 UNK        -0.0733 
     14 C14        30.4410   -2.0487   -2.1360 C.ar      12 UNK        -0.0832 
     15 C15        30.2436    0.1783   -0.9295 C.3       12 UNK         0.0240 
     16 S16        29.2967    1.5800   -1.6113 S.3       12 UNK        -0.2522 
     17 C17        27.9823    0.7133   -2.5271 C.3       12 UNK        -0.0967 
     18 CA         28.1069    0.8862   -4.0654 C.3       5 UNK         0.0660 
     19 N          27.5692   -0.2674   -4.7916 N.am      5 UNK        -0.4015 
     20 C          27.5996   -0.4407   -6.1222 C.2       4 UNK         0.4946 
     21 O          28.1763    0.3086   -6.9108 O.2       4 UNK        -0.5353 
     22 CA         26.8119   -1.6333   -6.6849 C.3       4 UNK         0.0277 
     23 CB         27.6821   -2.8972   -6.6862 C.3       4 UNK        -0.1981 
     24 N          25.5588   -1.8729   -5.9629 N.am      4 UNK        -0.4209 
     25 C          24.5342   -1.0055   -5.9396 C.2       3 UNK         0.4942 
     26 O          24.5222    0.0575   -6.5597 O.2       3 UNK        -0.5208 
     27 CA         23.3490   -1.3449   -5.0242 C.3       3 UNK         0.0250 
     28 CB         22.4628   -2.4407   -5.6379 C.3       3 UNK        -0.1990 
     29 N          23.7882   -1.7354   -3.6835 N.am      3 UNK        -0.4232 
     30 C          24.3989   -0.9099   -2.8206 C.2       2 UNK         0.4993 
     31 O          24.6191    0.2793   -3.0484 O.2       2 UNK        -0.5286 
     32 CA         24.8805   -1.5176   -1.4926 C.3       2 UNK         0.0209 
     33 CB         23.7742   -1.4340   -0.4293 C.3       2 UNK        -0.1931 
     34 N          25.3385   -2.9049   -1.6176 N.am      2 UNK        -0.4546 
     35 C          26.3879   -3.2959   -2.3559 C.2       1 UNK         0.5154 
     36 O          27.0711   -2.5191   -3.0252 O.2       1 UNK        -0.5181 
     37 C          27.4577    2.2056   -4.5319 C.2       5 UNK         0.5014 
     38 O          28.1708    3.1295   -4.9261 O.2       5 UNK        -0.5248 
     39 N          26.1171    2.2573   -4.4968 N.am      6 UNK        -0.4434 
     40 CA         25.3108    3.4149   -4.8905 C.3       6 UNK         0.0363 
     41 CB         23.8439    3.1736   -4.5002 C.3       6 UNK        -0.1936 
     42 C          25.4219    3.7567   -6.3847 C.2       6 UNK         0.5081 
     43 O          25.5163    4.9353   -6.7289 O.2       6 UNK        -0.5248 
     44 N          25.4150    2.7291   -7.2440 N.am      7 UNK        -0.4718 
     45 CA         25.5472    2.8698   -8.6966 C.3       7 UNK         0.0273 
     46 CB         25.0559    1.5773   -9.3690 C.3       7 UNK        -0.1935 
     47 C          26.9787    3.1918   -9.1613 C.2       7 UNK         0.5018 
     48 O          27.1411    3.6561  -10.2905 O.2       7 UNK        -0.5186 
     49 N          27.9779    2.9055   -8.3111 N.am      8 UNK        -0.4240 
     50 CA         29.4185    2.8973   -8.5976 C.3       8 UNK         0.0235 
     51 CB         29.9432    4.3202   -8.8837 C.3       8 UNK        -0.2000 
     52 C          29.7608    1.8811   -9.7060 C.2       8 UNK         0.4941 
     53 O          30.5128    2.1922  -10.6312 O.2       8 UNK        -0.5273 
     54 N          29.1703    0.6844   -9.5949 N.am      9 UNK        -0.4262 
     55 CA         29.2185   -0.3909  -10.5893 C.3       9 UNK         0.0264 
     56 CB         27.7855   -0.8988  -10.8359 C.3       9 UNK        -0.1955 
     57 C          30.1708   -1.5220  -10.1619 C.2       9 UNK         0.5031 
     58 O          29.9390   -2.6827  -10.5056 O.2       9 UNK        -0.5390 
     59 N          31.2221   -1.1713   -9.4171 N.am      10 UNK        -0.4204 
     60 CA         32.2464   -2.0615   -8.8839 C.3       10 UNK         0.0237 
     61 CB         31.6881   -2.8293   -7.6681 C.3       10 UNK        -0.1985 
     62 C          33.4743   -1.2175   -8.5154 C.2       10 UNK         0.4970 
     63 O          33.4125    0.0130   -8.5932 O.2       10 UNK        -0.4914 
     64 N          34.5533   -1.8937   -8.1020 N.am      11 UNK        -0.4285 
     65 CA         35.8275   -1.3044   -7.6440 C.3       11 UNK         0.1007 
     66 C          36.6693   -0.6186   -8.7646 C.2       11 UNK         0.5703 
     67 N          36.3854   -0.8493  -10.0413 N.am      11 UNK        -0.7361 
     68 O          37.6190    0.1074   -8.4783 O.2       11 UNK        -0.4986 
     69 C69        35.6804   -0.4083   -6.3759 C.3       12 UNK        -0.0947 
     70 S70        34.8663   -1.2550   -4.9783 S.3       12 UNK        -0.2240 
     71 C71        33.2715   -0.3773   -4.9349 C.3       12 UNK         0.0194 
     72 H72        23.8504   -6.8196   -5.3112 H         1 UNK         0.0906 
     73 H73        23.4903   -6.9949   -3.5930 H         1 UNK         0.0906 
     74 H74        22.7816   -5.6646   -4.5118 H         1 UNK         0.0906 
     75 H75        25.1090   -6.2489   -2.2561 H         1 UNK         0.3140 
     76 H76        26.7632   -5.1277   -1.3541 H         1 UNK         0.1085 
     77 H77        28.0504   -4.6645   -4.0801 H         1 UNK         0.0836 
     78 H78        27.8964   -6.2665   -3.4404 H         1 UNK         0.0836 
     79 H79        30.3351   -4.5527   -4.3090 H         1 UNK         0.0731 
     80 H80        31.5840   -4.9171   -3.1539 H         1 UNK         0.0731 
     81 H81        32.3359   -2.9346   -4.8049 H         1 UNK         0.1312 
     82 H82        32.0596    0.8545   -2.8273 H         1 UNK         0.1406 
     83 H83        29.7179   -2.4459   -1.4386 H         1 UNK         0.1631 
     84 H84        31.0553    0.5673   -0.3132 H         1 UNK         0.0717 
     85 H85        29.5993   -0.3957   -0.2615 H         1 UNK         0.0717 
     86 H86        28.0351   -0.3404   -2.2602 H         1 UNK         0.0934 
     87 H87        27.0155    1.0520   -2.1513 H         1 UNK         0.0934 
     88 H88        29.1668    0.9286   -4.3264 H         1 UNK         0.0739 
     89 H89        27.1467   -0.9981   -4.2250 H         1 UNK         0.3093 
     90 H90        26.5484   -1.4002   -7.7178 H         1 UNK         0.0818 
     91 H91        28.5450   -2.7701   -7.3410 H         1 UNK         0.0819 
     92 H92        28.0612   -3.1188   -5.6897 H         1 UNK         0.0819 
     93 H93        27.1282   -3.7668   -7.0402 H         1 UNK         0.0819 
     94 H94        25.4835   -2.7474   -5.4459 H         1 UNK         0.3041 
     95 H95        22.7428   -0.4419   -4.9228 H         1 UNK         0.0784 
     96 H96        22.0869   -2.1310   -6.6140 H         1 UNK         0.0793 
     97 H97        23.0057   -3.3743   -5.7833 H         1 UNK         0.0793 
     98 H98        21.5965   -2.6493   -5.0100 H         1 UNK         0.0793 
     99 H99        23.6825   -2.7058   -3.4283 H         1 UNK         0.3024 
    100 H100       25.7272   -0.9188   -1.1507 H         1 UNK         0.1171 
    101 H101       24.1313   -1.7738    0.5431 H         1 UNK         0.0786 
    102 H102       23.4311   -0.4058   -0.3045 H         1 UNK         0.0786 
    103 H103       22.9059   -2.0367   -0.6988 H         1 UNK         0.0786 
    104 H104       24.8098   -3.6070   -1.1197 H         1 UNK         0.2977 
    105 H105       25.6044    1.4580   -4.1276 H         1 UNK         0.3127 
    106 H106       25.6752    4.2767   -4.3275 H         1 UNK         0.0770 
    107 H107       23.4345    2.2939   -4.9990 H         1 UNK         0.0814 
    108 H108       23.2202    4.0259   -4.7729 H         1 UNK         0.0814 
    109 H109       23.7394    3.0251   -3.4253 H         1 UNK         0.0814 
    110 H110       25.2671    1.7869   -6.8870 H         1 UNK         0.2983 
    111 H111       24.9058    3.6911   -9.0241 H         1 UNK         0.0947 
    112 H112       25.1094    1.6540  -10.4558 H         1 UNK         0.0806 
    113 H113       24.0186    1.3647   -9.1097 H         1 UNK         0.0806 
    114 H114       25.6572    0.7174   -9.0712 H         1 UNK         0.0806 
    115 H115       27.7206    2.4947   -7.4214 H         1 UNK         0.3000 
    116 H116       29.9074    2.5397   -7.6898 H         1 UNK         0.0850 
    117 H117       31.0300    4.3220   -8.9748 H         1 UNK         0.0810 
    118 H118       29.6839    5.0063   -8.0774 H         1 UNK         0.0810 
    119 H119       29.5402    4.7249   -9.8124 H         1 UNK         0.0810 
    120 H120       28.6526    0.4946   -8.7382 H         1 UNK         0.3040 
    121 H121       29.5991   -0.0035  -11.5364 H         1 UNK         0.0766 
    122 H122       27.1235   -0.0860  -11.1343 H         1 UNK         0.0812 
    123 H123       27.3653   -1.3673   -9.9462 H         1 UNK         0.0812 
    124 H124       27.7635   -1.6400  -11.6358 H         1 UNK         0.0812 
    125 H125       31.3943   -0.1899   -9.2312 H         1 UNK         0.3205 
    126 H126       32.5459   -2.7680   -9.6607 H         1 UNK         0.0754 
    127 H127       32.4500   -3.4517   -7.1984 H         1 UNK         0.0769 
    128 H128       30.8753   -3.4939   -7.9606 H         1 UNK         0.0769 
    129 H129       31.3000   -2.1479   -6.9104 H         1 UNK         0.0769 
    130 H130       34.5170   -2.9025   -8.0844 H         1 UNK         0.2981 
    131 H131       36.4357   -2.1599   -7.3487 H         1 UNK         0.0541 
    132 H132       35.6206   -1.4529  -10.2953 H         1 UNK         0.3459 
    133 H133       36.9431   -0.4106  -10.7570 H         1 UNK         0.3459 
    134 H134       36.6636   -0.0961   -6.0202 H         1 UNK         0.0612 
    135 H135       35.1465    0.5130   -6.6135 H         1 UNK         0.0612 
    136 H136       32.8038   -0.4034   -5.9171 H         1 UNK         0.0624 
    137 H137       33.4598    0.6742   -4.7127 H         1 UNK         0.0624 
@<TRIPOS>BOND
     1    1    2 1    
     2    1   72 1    
     3    1   73 1    
     4    1   74 1    
     5    2    3 2    
     6    2    4 am   BACKBONE|DICT|INTERRES
     7    4    5 1    
     8    4   75 1    
     9    5    6 1    
    10    5   35 1    
    11    5   76 1    
    12    6    7 1    
    13    6   77 1    
    14    6   78 1    
    15    7    8 1    
    16    8    9 1    
    17    8   79 1    
    18    8   80 1    
    19    9   10 ar   
    20    9   14 ar   
    21   10   11 ar   
    22   10   81 1    
    23   11   12 ar   
    24   11   71 1    
    25   12   13 ar   
    26   12   82 1    
    27   13   14 ar   
    28   13   15 1    
    29   14   83 1    
    30   15   16 1    
    31   15   84 1    
    32   15   85 1    
    33   16   17 1    
    34   17   18 1    
    35   17   86 1    
    36   17   87 1    
    37   18   19 1    
    38   18   37 1    
    39   18   88 1    
    40   19   20 am   BACKBONE|DICT|INTERRES
    41   19   89 1    
    42   20   21 2    
    43   20   22 1    
    44   22   23 1    
    45   22   24 1    
    46   22   90 1    
    47   23   91 1    
    48   23   92 1    
    49   23   93 1    
    50   24   25 am   BACKBONE|DICT|INTERRES
    51   24   94 1    
    52   25   26 2    
    53   25   27 1    
    54   27   28 1    
    55   27   29 1    
    56   27   95 1    
    57   28   96 1    
    58   28   97 1    
    59   28   98 1    
    60   29   30 am   BACKBONE|DICT|INTERRES
    61   29   99 1    
    62   30   31 2    
    63   30   32 1    
    64   32   33 1    
    65   32   34 1    
    66   32  100 1    
    67   33  101 1    
    68   33  102 1    
    69   33  103 1    
    70   34   35 am   BACKBONE|DICT|INTERRES
    71   34  104 1    
    72   35   36 2    
    73   37   38 2    
    74   37   39 am   BACKBONE|DICT|INTERRES
    75   39   40 1    
    76   39  105 1    
    77   40   41 1    
    78   40   42 1    
    79   40  106 1    
    80   41  107 1    
    81   41  108 1    
    82   41  109 1    
    83   42   43 2    
    84   42   44 am   BACKBONE|DICT|INTERRES
    85   44   45 1    
    86   44  110 1    
    87   45   46 1    
    88   45   47 1    
    89   45  111 1    
    90   46  112 1    
    91   46  113 1    
    92   46  114 1    
    93   47   48 2    
    94   47   49 am   BACKBONE|DICT|INTERRES
    95   49   50 1    
    96   49  115 1    
    97   50   51 1    
    98   50   52 1    
    99   50  116 1    
   100   51  117 1    
   101   51  118 1    
   102   51  119 1    
   103   52   53 2    
   104   52   54 am   BACKBONE|DICT|INTERRES
   105   54   55 1    
   106   54  120 1    
   107   55   56 1    
   108   55   57 1    
   109   55  121 1    
   110   56  122 1    
   111   56  123 1    
   112   56  124 1    
   113   57   58 2    
   114   57   59 am   BACKBONE|DICT|INTERRES
   115   59   60 1    
   116   59  125 1    
   117   60   61 1    
   118   60   62 1    
   119   60  126 1    
   120   61  127 1    
   121   61  128 1    
   122   61  129 1    
   123   62   63 2    
   124   62   64 am   BACKBONE|DICT|INTERRES
   125   64   65 1    
   126   64  130 1    
   127   65   66 1    
   128   65   69 1    
   129   65  131 1    
   130   66   67 am   BACKBONE|DICT|INTERRES
   131   66   68 2    
   132   67  132 1    
   133   67  133 1    
   134   69   70 1    
   135   69  134 1    
   136   69  135 1    
   137   70   71 1    
   138   71  136 1    
   139   71  137 1    
@<TRIPOS>SUBSTRUCTURE
     1 UNK         1 GROUP             0       ****    0 ROOT    
