@<TRIPOS>MOLECULE
3R137
137   139    1
SMALL
USER_CHARGES


@<TRIPOS>ATOM
      1 CA         25.8462   -6.2542    0.8498 C.3       0 UNK        -0.2020 
      2 C          26.2314   -4.8927    0.2911 C.2       0 UNK         0.4855 
      3 O          26.2882   -3.9171    1.0394 O.2       0 UNK        -0.5197 
      4 N          26.4884   -4.8157   -1.0212 N.am      1 UNK        -0.4892 
      5 CA         26.9051   -3.5934   -1.7244 C.3       1 UNK         0.0835 
      6 C6         27.7059   -3.9094   -3.0112 C.3       12 UNK        -0.0855 
      7 S7         29.2559   -4.8095   -2.6711 S.3       12 UNK        -0.2931 
      8 C8         30.3894   -4.1098   -3.9288 C.3       12 UNK         0.0378 
      9 C9         30.7715   -2.6355   -3.7587 C.ar      12 UNK        -0.0802 
     10 C10        31.3592   -1.9700   -4.8413 C.ar      12 UNK        -0.0944 
     11 C11        31.7701   -0.6378   -4.7284 C.ar      12 UNK        -0.0787 
     12 C12        31.5784    0.0411   -3.5245 C.ar      12 UNK        -0.0862 
     13 C13        30.9539   -0.5919   -2.4478 C.ar      12 UNK        -0.0733 
     14 C14        30.5764   -1.9339   -2.5608 C.ar      12 UNK        -0.0832 
     15 C15        30.6472    0.1899   -1.1776 C.3       12 UNK         0.0240 
     16 S16        29.4586    1.5444   -1.4781 S.3       12 UNK        -0.2522 
     17 C17        28.0830    0.6752   -2.3084 C.3       12 UNK        -0.0967 
     18 CA         28.0730    0.8974   -3.8458 C.3       5 UNK         0.0660 
     19 N          27.4742   -0.2296   -4.5717 N.am      5 UNK        -0.4015 
     20 C          27.6725   -0.4564   -5.8793 C.2       4 UNK         0.4946 
     21 O          28.4091    0.2313   -6.5835 O.2       4 UNK        -0.5353 
     22 CA         26.9050   -1.6010   -6.5590 C.3       4 UNK         0.0277 
     23 CB         27.7696   -2.8657   -6.6811 C.3       4 UNK        -0.1981 
     24 N          25.6003   -1.9230   -5.9747 N.am      4 UNK        -0.4209 
     25 C          24.5497   -1.0886   -5.9865 C.2       3 UNK         0.4942 
     26 O          24.6195    0.0911   -6.3316 O.2       3 UNK        -0.5208 
     27 CA         23.1981   -1.6753   -5.5557 C.3       3 UNK         0.0250 
     28 CB         22.7340   -2.7785   -6.5229 C.3       3 UNK        -0.1990 
     29 N          23.2654   -2.2031   -4.1941 N.am      3 UNK        -0.4232 
     30 C          23.0256   -1.4743   -3.0965 C.2       2 UNK         0.4993 
     31 O          22.6325   -0.3073   -3.1142 O.2       2 UNK        -0.5286 
     32 CA         23.2939   -2.1559   -1.7425 C.3       2 UNK         0.0209 
     33 CB         22.0684   -2.9689   -1.2937 C.3       2 UNK        -0.1931 
     34 N          24.4897   -3.0106   -1.6968 N.am      2 UNK        -0.4546 
     35 C          25.7335   -2.6331   -2.0317 C.2       1 UNK         0.5154 
     36 O          25.9832   -1.5617   -2.5820 O.2       1 UNK        -0.5181 
     37 C          27.4114    2.2362   -4.2300 C.2       5 UNK         0.5014 
     38 O          28.1043    3.2505   -4.3215 O.2       5 UNK        -0.5248 
     39 N          26.0925    2.2162   -4.4752 N.am      6 UNK        -0.4434 
     40 CA         25.3260    3.3751   -4.9353 C.3       6 UNK         0.0363 
     41 CB         23.8274    3.1364   -4.6879 C.3       6 UNK        -0.1936 
     42 C          25.5972    3.6867   -6.4158 C.2       6 UNK         0.5081 
     43 O          25.7543    4.8547   -6.7717 O.2       6 UNK        -0.5248 
     44 N          25.6577    2.6380   -7.2477 N.am      7 UNK        -0.4718 
     45 CA         25.9336    2.7331   -8.6835 C.3       7 UNK         0.0273 
     46 CB         25.4791    1.4299   -9.3614 C.3       7 UNK        -0.1935 
     47 C          27.4101    3.0143   -9.0183 C.2       7 UNK         0.5018 
     48 O          27.6843    3.4986  -10.1169 O.2       7 UNK        -0.5186 
     49 N          28.3219    2.6732   -8.0938 N.am      8 UNK        -0.4240 
     50 CA         29.7817    2.6137   -8.2533 C.3       8 UNK         0.0235 
     51 CB         30.3841    4.0157   -8.4847 C.3       8 UNK        -0.2000 
     52 C          30.1875    1.5826   -9.3263 C.2       8 UNK         0.4941 
     53 O          31.0285    1.8692  -10.1804 O.2       8 UNK        -0.5273 
     54 N          29.5457    0.4082   -9.2770 N.am      9 UNK        -0.4262 
     55 CA         29.7364   -0.6905  -10.2233 C.3       9 UNK         0.0264 
     56 CB         28.4362   -1.5039  -10.3194 C.3       9 UNK        -0.1955 
     57 C          30.9027   -1.5842   -9.7829 C.2       9 UNK         0.5031 
     58 O          31.1494   -1.7189   -8.5842 O.2       9 UNK        -0.5390 
     59 N          31.5984   -2.1829  -10.7585 N.am      10 UNK        -0.4204 
     60 CA         32.7788   -3.0566  -10.6355 C.3       10 UNK         0.0237 
     61 CB         32.4866   -4.3016   -9.7730 C.3       10 UNK        -0.1985 
     62 C          34.0651   -2.3450  -10.1691 C.2       10 UNK         0.4970 
     63 O          35.1421   -2.6971  -10.6525 O.2       10 UNK        -0.4914 
     64 N          33.9441   -1.3615   -9.2697 N.am      11 UNK        -0.4285 
     65 CA         35.0230   -0.4653   -8.8284 C.3       11 UNK         0.1007 
     66 C          35.6225    0.3787   -9.9885 C.2       11 UNK         0.5703 
     67 N          36.9090    0.6949   -9.9227 N.am      11 UNK        -0.7361 
     68 O          34.9293    0.7810  -10.9214 O.2       11 UNK        -0.4986 
     69 C69        34.5582    0.4603   -7.6743 C.3       12 UNK        -0.0947 
     70 S70        34.1137   -0.4706   -6.1719 S.3       12 UNK        -0.2240 
     71 C71        32.4002    0.0764   -5.9126 C.3       12 UNK         0.0194 
     72 H72        25.8302   -7.0231    0.0776 H         1 UNK         0.0906 
     73 H73        26.5581   -6.5592    1.6163 H         1 UNK         0.0906 
     74 H74        24.8565   -6.2080    1.3034 H         1 UNK         0.0906 
     75 H75        26.4459   -5.6521   -1.5873 H         1 UNK         0.3140 
     76 H76        27.5677   -3.0339   -1.0598 H         1 UNK         0.1085 
     77 H77        27.1050   -4.4944   -3.7096 H         1 UNK         0.0836 
     78 H78        27.9660   -2.9812   -3.5213 H         1 UNK         0.0836 
     79 H79        29.9493   -4.2637   -4.9147 H         1 UNK         0.0731 
     80 H80        31.3085   -4.6970   -3.9137 H         1 UNK         0.0731 
     81 H81        31.5100   -2.4895   -5.7787 H         1 UNK         0.1312 
     82 H82        31.8750    1.0773   -3.4351 H         1 UNK         0.1406 
     83 H83        30.1179   -2.4212   -1.7127 H         1 UNK         0.1631 
     84 H84        31.5721    0.6090   -0.7790 H         1 UNK         0.0717 
     85 H85        30.2465   -0.4656   -0.4028 H         1 UNK         0.0717 
     86 H86        28.1854   -0.3856   -2.0818 H         1 UNK         0.0934 
     87 H87        27.1369    0.9751   -1.8532 H         1 UNK         0.0934 
     88 H88        29.1083    0.9601   -4.1839 H         1 UNK         0.0739 
     89 H89        26.8418   -0.8209   -4.0367 H         1 UNK         0.3093 
     90 H90        26.7074   -1.2573   -7.5759 H         1 UNK         0.0818 
     91 H91        27.8772   -3.3837   -5.7333 H         1 UNK         0.0819 
     92 H92        27.3394   -3.5689   -7.3943 H         1 UNK         0.0819 
     93 H93        28.7744   -2.6247   -7.0339 H         1 UNK         0.0819 
     94 H94        25.4612   -2.8736   -5.6687 H         1 UNK         0.3041 
     95 H95        22.4611   -0.8700   -5.6006 H         1 UNK         0.0784 
     96 H96        22.7013   -2.4084   -7.5488 H         1 UNK         0.0793 
     97 H97        23.3933   -3.6470   -6.5099 H         1 UNK         0.0793 
     98 H98        21.7296   -3.1212   -6.2731 H         1 UNK         0.0793 
     99 H99        23.5824   -3.1538   -4.0744 H         1 UNK         0.3024 
    100 H100       23.4524   -1.3547   -1.0172 H         1 UNK         0.1171 
    101 H101       21.1673   -2.3537   -1.3001 H         1 UNK         0.0786 
    102 H102       22.1919   -3.3461   -0.2783 H         1 UNK         0.0786 
    103 H103       21.8859   -3.8211   -1.9494 H         1 UNK         0.0786 
    104 H104       24.3842   -3.9149   -1.2603 H         1 UNK         0.2977 
    105 H105       25.5991    1.3350   -4.4296 H         1 UNK         0.3127 
    106 H106       25.6299    4.2453   -4.3491 H         1 UNK         0.0770 
    107 H107       23.4546    2.2726   -5.2395 H         1 UNK         0.0814 
    108 H108       23.2396    4.0004   -5.0005 H         1 UNK         0.0814 
    109 H109       23.6215    2.9697   -3.6305 H         1 UNK         0.0814 
    110 H110       25.4407    1.7135   -6.8811 H         1 UNK         0.2983 
    111 H111       25.3435    3.5559   -9.0932 H         1 UNK         0.0947 
    112 H112       25.6273    1.4774  -10.4412 H         1 UNK         0.0806 
    113 H113       24.4199    1.2395   -9.1870 H         1 UNK         0.0806 
    114 H114       26.0383    0.5698   -8.9932 H         1 UNK         0.0806 
    115 H115       27.9764    2.2217   -7.2554 H         1 UNK         0.3000 
    116 H116       30.1765    2.2394   -7.3072 H         1 UNK         0.0850 
    117 H117       31.4739    3.9754   -8.4766 H         1 UNK         0.0810 
    118 H118       30.0788    4.7111   -7.7029 H         1 UNK         0.0810 
    119 H119       30.0834    4.4356   -9.4449 H         1 UNK         0.0810 
    120 H120       28.9777    0.2200   -8.4555 H         1 UNK         0.3040 
    121 H121       29.9574   -0.2755  -11.2092 H         1 UNK         0.0766 
    122 H122       27.5937   -0.8747  -10.6070 H         1 UNK         0.0812 
    123 H123       28.1903   -1.9846   -9.3737 H         1 UNK         0.0812 
    124 H124       28.5226   -2.2915  -11.0689 H         1 UNK         0.0812 
    125 H125       31.3214   -1.9865  -11.7110 H         1 UNK         0.3205 
    126 H126       32.9785   -3.4091  -11.6487 H         1 UNK         0.0754 
    127 H127       33.3233   -5.0006   -9.8070 H         1 UNK         0.0769 
    128 H128       31.6047   -4.8337  -10.1297 H         1 UNK         0.0769 
    129 H129       32.3244   -4.0471   -8.7252 H         1 UNK         0.0769 
    130 H130       33.0212   -1.1879   -8.8867 H         1 UNK         0.2981 
    131 H131       35.8218   -1.1051   -8.4480 H         1 UNK         0.0541 
    132 H132       37.4850    0.3820   -9.1566 H         1 UNK         0.3459 
    133 H133       37.3138    1.2538  -10.6575 H         1 UNK         0.3459 
    134 H134       35.3530    1.1544   -7.3945 H         1 UNK         0.0612 
    135 H135       33.7163    1.0766   -7.9963 H         1 UNK         0.0612 
    136 H136       31.8063   -0.1046   -6.8062 H         1 UNK         0.0624 
    137 H137       32.3923    1.1565   -5.7581 H         1 UNK         0.0624 
@<TRIPOS>BOND
     1    1    2 1    
     2    1   72 1    
     3    1   73 1    
     4    1   74 1    
     5    2    3 2    
     6    2    4 am   BACKBONE|DICT|INTERRES
     7    4    5 1    
     8    4   75 1    
     9    5    6 1    
    10    5   35 1    
    11    5   76 1    
    12    6    7 1    
    13    6   77 1    
    14    6   78 1    
    15    7    8 1    
    16    8    9 1    
    17    8   79 1    
    18    8   80 1    
    19    9   10 ar   
    20    9   14 ar   
    21   10   11 ar   
    22   10   81 1    
    23   11   12 ar   
    24   11   71 1    
    25   12   13 ar   
    26   12   82 1    
    27   13   14 ar   
    28   13   15 1    
    29   14   83 1    
    30   15   16 1    
    31   15   84 1    
    32   15   85 1    
    33   16   17 1    
    34   17   18 1    
    35   17   86 1    
    36   17   87 1    
    37   18   19 1    
    38   18   37 1    
    39   18   88 1    
    40   19   20 am   BACKBONE|DICT|INTERRES
    41   19   89 1    
    42   20   21 2    
    43   20   22 1    
    44   22   23 1    
    45   22   24 1    
    46   22   90 1    
    47   23   91 1    
    48   23   92 1    
    49   23   93 1    
    50   24   25 am   BACKBONE|DICT|INTERRES
    51   24   94 1    
    52   25   26 2    
    53   25   27 1    
    54   27   28 1    
    55   27   29 1    
    56   27   95 1    
    57   28   96 1    
    58   28   97 1    
    59   28   98 1    
    60   29   30 am   BACKBONE|DICT|INTERRES
    61   29   99 1    
    62   30   31 2    
    63   30   32 1    
    64   32   33 1    
    65   32   34 1    
    66   32  100 1    
    67   33  101 1    
    68   33  102 1    
    69   33  103 1    
    70   34   35 am   BACKBONE|DICT|INTERRES
    71   34  104 1    
    72   35   36 2    
    73   37   38 2    
    74   37   39 am   BACKBONE|DICT|INTERRES
    75   39   40 1    
    76   39  105 1    
    77   40   41 1    
    78   40   42 1    
    79   40  106 1    
    80   41  107 1    
    81   41  108 1    
    82   41  109 1    
    83   42   43 2    
    84   42   44 am   BACKBONE|DICT|INTERRES
    85   44   45 1    
    86   44  110 1    
    87   45   46 1    
    88   45   47 1    
    89   45  111 1    
    90   46  112 1    
    91   46  113 1    
    92   46  114 1    
    93   47   48 2    
    94   47   49 am   BACKBONE|DICT|INTERRES
    95   49   50 1    
    96   49  115 1    
    97   50   51 1    
    98   50   52 1    
    99   50  116 1    
   100   51  117 1    
   101   51  118 1    
   102   51  119 1    
   103   52   53 2    
   104   52   54 am   BACKBONE|DICT|INTERRES
   105   54   55 1    
   106   54  120 1    
   107   55   56 1    
   108   55   57 1    
   109   55  121 1    
   110   56  122 1    
   111   56  123 1    
   112   56  124 1    
   113   57   58 2    
   114   57   59 am   BACKBONE|DICT|INTERRES
   115   59   60 1    
   116   59  125 1    
   117   60   61 1    
   118   60   62 1    
   119   60  126 1    
   120   61  127 1    
   121   61  128 1    
   122   61  129 1    
   123   62   63 2    
   124   62   64 am   BACKBONE|DICT|INTERRES
   125   64   65 1    
   126   64  130 1    
   127   65   66 1    
   128   65   69 1    
   129   65  131 1    
   130   66   67 am   BACKBONE|DICT|INTERRES
   131   66   68 2    
   132   67  132 1    
   133   67  133 1    
   134   69   70 1    
   135   69  134 1    
   136   69  135 1    
   137   70   71 1    
   138   71  136 1    
   139   71  137 1    
@<TRIPOS>SUBSTRUCTURE
     1 UNK         1 GROUP             0       ****    0 ROOT    
