@<TRIPOS>MOLECULE
3R137
137   139    1
SMALL
USER_CHARGES


@<TRIPOS>ATOM
      1 CA         29.7333   -6.1563   -1.2028 C.3       0 UNK        -0.2020 
      2 C          28.7455   -5.4161   -0.3138 C.2       0 UNK         0.4855 
      3 O          27.8729   -6.0413    0.2882 O.2       0 UNK        -0.5197 
      4 N          28.8759   -4.0863   -0.2273 N.am      1 UNK        -0.4892 
      5 CA         28.0299   -3.2038    0.5853 C.3       1 UNK         0.0835 
      6 C6         28.7785   -1.8967    0.9658 C.3       12 UNK        -0.0855 
      7 S7         28.9371   -0.6417   -0.3583 S.3       12 UNK        -0.2931 
      8 C8         30.6501   -0.8745   -0.9545 C.3       12 UNK         0.0378 
      9 C9         30.8452   -1.9707   -2.0042 C.ar      12 UNK        -0.0802 
     10 C10        32.1478   -2.3836   -2.3024 C.ar      12 UNK        -0.0944 
     11 C11        32.3897   -3.3208   -3.3115 C.ar      12 UNK        -0.0787 
     12 C12        31.3120   -3.9057   -3.9798 C.ar      12 UNK        -0.0862 
     13 C13        30.0053   -3.5052   -3.6964 C.ar      12 UNK        -0.0733 
     14 C14        29.7808   -2.5223   -2.7290 C.ar      12 UNK        -0.0832 
     15 C15        28.8363   -4.0983   -4.4689 C.3       12 UNK         0.0240 
     16 S16        28.8683   -3.6193   -6.2232 S.3       12 UNK        -0.2522 
     17 C17        28.9945   -1.8038   -6.1004 C.3       12 UNK        -0.0967 
     18 CA         28.0419   -1.0902   -7.0776 C.3       5 UNK         0.0660 
     19 N          26.6325   -1.3489   -6.7703 N.am      5 UNK        -0.4015 
     20 C          25.6220   -1.0831   -7.6098 C.2       4 UNK         0.4946 
     21 O          25.7764   -0.6188   -8.7384 O.2       4 UNK        -0.5353 
     22 CA         24.1937   -1.3260   -7.0908 C.3       4 UNK         0.0277 
     23 CB         23.7675   -2.7796   -7.3500 C.3       4 UNK        -0.1981 
     24 N          24.0307   -1.0144   -5.6684 N.am      4 UNK        -0.4209 
     25 C          24.2766    0.1795   -5.1092 C.2       3 UNK         0.4942 
     26 O          24.6109    1.1735   -5.7541 O.2       3 UNK        -0.5208 
     27 CA         24.1731    0.2832   -3.5765 C.3       3 UNK         0.0250 
     28 CB         22.8767    1.0059   -3.1774 C.3       3 UNK        -0.1990 
     29 N          24.2498   -1.0012   -2.8675 N.am      3 UNK        -0.4232 
     30 C          25.3180   -1.8110   -2.8474 C.2       2 UNK         0.4993 
     31 O          26.3529   -1.6014   -3.4864 O.2       2 UNK        -0.5286 
     32 CA         25.1784   -3.1043   -2.0325 C.3       2 UNK         0.0209 
     33 CB         24.8937   -4.2965   -2.9618 C.3       2 UNK        -0.1931 
     34 N          26.4060   -3.3584   -1.2790 N.am      2 UNK        -0.4546 
     35 C          26.6298   -2.9428   -0.0238 C.2       1 UNK         0.5154 
     36 O          25.7786   -2.3687    0.6583 O.2       1 UNK        -0.5181 
     37 C          28.3536    0.4163   -7.1168 C.2       5 UNK         0.5014 
     38 O          29.1438    0.8406   -7.9561 O.2       5 UNK        -0.5248 
     39 N          27.7150    1.2063   -6.2401 N.am      6 UNK        -0.4434 
     40 CA         27.8265    2.6663   -6.2353 C.3       6 UNK         0.0363 
     41 CB         27.2511    3.2393   -4.9302 C.3       6 UNK        -0.1936 
     42 C          27.1517    3.2902   -7.4674 C.2       6 UNK         0.5081 
     43 O          27.7220    4.1983   -8.0710 O.2       6 UNK        -0.5248 
     44 N          25.9813    2.7590   -7.8513 N.am      7 UNK        -0.4718 
     45 CA         25.2576    3.1310   -9.0712 C.3       7 UNK         0.0273 
     46 CB         23.8704    2.4695   -9.0688 C.3       7 UNK        -0.1935 
     47 C          26.0313    2.7834  -10.3568 C.2       7 UNK         0.5018 
     48 O          26.0601    3.5937  -11.2834 O.2       7 UNK        -0.5186 
     49 N          26.6714    1.6059  -10.3769 N.am      8 UNK        -0.4240 
     50 CA         27.5416    1.1372  -11.4607 C.3       8 UNK         0.0235 
     51 CB         27.6303   -0.3972  -11.3951 C.3       8 UNK        -0.2000 
     52 C          28.9558    1.7513  -11.4395 C.2       8 UNK         0.4941 
     53 O          29.7447    1.4499  -12.3361 O.2       8 UNK        -0.5273 
     54 N          29.2806    2.5482  -10.4114 N.am      9 UNK        -0.4262 
     55 CA         30.5652    3.1886  -10.0929 C.3       9 UNK         0.0264 
     56 CB         31.0145    4.1502  -11.2098 C.3       9 UNK        -0.1955 
     57 C          31.6992    2.2202   -9.7016 C.2       9 UNK         0.5031 
     58 O          32.4853    2.5580   -8.8144 O.2       9 UNK        -0.5390 
     59 N          31.7782    1.0507  -10.3493 N.am      10 UNK        -0.4204 
     60 CA         32.7432   -0.0214  -10.0950 C.3       10 UNK         0.0237 
     61 CB         32.5363   -1.1366  -11.1348 C.3       10 UNK        -0.1985 
     62 C          32.6334   -0.5648   -8.6579 C.2       10 UNK         0.4970 
     63 O          31.6964   -1.3055   -8.3591 O.2       10 UNK        -0.4914 
     64 N          33.5892   -0.1688   -7.8073 N.am      11 UNK        -0.4285 
     65 CA         33.6132   -0.4069   -6.3538 C.3       11 UNK         0.1007 
     66 C          32.5595    0.4263   -5.5559 C.2       11 UNK         0.5703 
     67 N          31.9750    1.4736   -6.1258 N.am      11 UNK        -0.7361 
     68 O          32.2969    0.1621   -4.3876 O.2       11 UNK        -0.4986 
     69 C69        33.6537   -1.9232   -5.9853 C.3       12 UNK        -0.0947 
     70 S70        34.6736   -2.2623   -4.5044 S.3       12 UNK        -0.2240 
     71 C71        33.8152   -3.6677   -3.7153 C.3       12 UNK         0.0194 
     72 H72        29.2292   -6.5374   -2.0902 H         1 UNK         0.0906 
     73 H73        30.1625   -7.0014   -0.6653 H         1 UNK         0.0906 
     74 H74        30.5528   -5.5134   -1.5237 H         1 UNK         0.0906 
     75 H75        29.6059   -3.6216   -0.7523 H         1 UNK         0.3140 
     76 H76        27.8369   -3.7310    1.5227 H         1 UNK         0.1085 
     77 H77        29.7657   -2.1348    1.3649 H         1 UNK         0.0836 
     78 H78        28.2515   -1.4159    1.7920 H         1 UNK         0.0836 
     79 H79        30.9778    0.0665   -1.3989 H         1 UNK         0.0731 
     80 H80        31.3071   -1.0525   -0.1019 H         1 UNK         0.0731 
     81 H81        32.9850   -1.9312   -1.7883 H         1 UNK         0.1312 
     82 H82        31.4883   -4.6360   -4.7578 H         1 UNK         0.1406 
     83 H83        28.7700   -2.1795   -2.5591 H         1 UNK         0.1631 
     84 H84        27.8877   -3.7810   -4.0379 H         1 UNK         0.0717 
     85 H85        28.8635   -5.1862   -4.3944 H         1 UNK         0.0717 
     86 H86        28.7863   -1.4745   -5.0816 H         1 UNK         0.0934 
     87 H87        30.0344   -1.5351   -6.2980 H         1 UNK         0.0934 
     88 H88        28.2407   -1.4785   -8.0791 H         1 UNK         0.0739 
     89 H89        26.4300   -1.7072   -5.8459 H         1 UNK         0.3093 
     90 H90        23.5257   -0.6671   -7.6492 H         1 UNK         0.0818 
     91 H91        23.8634   -3.0302   -8.4076 H         1 UNK         0.0819 
     92 H92        24.3803   -3.4880   -6.7907 H         1 UNK         0.0819 
     93 H93        22.7258   -2.9440   -7.0741 H         1 UNK         0.0819 
     94 H94        23.7474   -1.7711   -5.0642 H         1 UNK         0.3041 
     95 H95        25.0177    0.8908   -3.2441 H         1 UNK         0.0784 
     96 H96        22.8061    1.9793   -3.6656 H         1 UNK         0.0793 
     97 H97        21.9916    0.4349   -3.4608 H         1 UNK         0.0793 
     98 H98        22.8345    1.1828   -2.1025 H         1 UNK         0.0793 
     99 H99        23.4340   -1.2609   -2.3309 H         1 UNK         0.3024 
    100 H100       24.3397   -3.0055   -1.3390 H         1 UNK         0.1171 
    101 H101       23.9501   -4.1610   -3.4919 H         1 UNK         0.0786 
    102 H102       25.6709   -4.4277   -3.7146 H         1 UNK         0.0786 
    103 H103       24.8148   -5.2264   -2.3982 H         1 UNK         0.0786 
    104 H104       27.1645   -3.8003   -1.7746 H         1 UNK         0.2977 
    105 H105       27.0412    0.7964   -5.6092 H         1 UNK         0.3127 
    106 H106       28.8878    2.9220   -6.2744 H         1 UNK         0.0770 
    107 H107       26.1828    3.0471   -4.8327 H         1 UNK         0.0814 
    108 H108       27.3887    4.3206   -4.8905 H         1 UNK         0.0814 
    109 H109       27.7497    2.8176   -4.0573 H         1 UNK         0.0814 
    110 H110       25.5565    2.0502   -7.2592 H         1 UNK         0.2983 
    111 H111       25.1181    4.2142   -9.0545 H         1 UNK         0.0947 
    112 H112       23.2918    2.7749   -9.9415 H         1 UNK         0.0806 
    113 H113       23.2981    2.7508   -8.1844 H         1 UNK         0.0806 
    114 H114       23.9404    1.3819   -9.0888 H         1 UNK         0.0806 
    115 H115       26.5259    0.9605   -9.6043 H         1 UNK         0.3000 
    116 H116       27.0862    1.4116  -12.4145 H         1 UNK         0.0850 
    117 H117       28.2152   -0.7955  -12.2253 H         1 UNK         0.0810 
    118 H118       26.6423   -0.8550  -11.4477 H         1 UNK         0.0810 
    119 H119       28.1050   -0.7307  -10.4714 H         1 UNK         0.0810 
    120 H120       28.5751    2.6684   -9.6957 H         1 UNK         0.3040 
    121 H121       30.3645    3.7920   -9.2061 H         1 UNK         0.0766 
    122 H122       31.2577    3.6225  -12.1323 H         1 UNK         0.0812 
    123 H123       31.9063    4.7020  -10.9096 H         1 UNK         0.0812 
    124 H124       30.2403    4.8835  -11.4357 H         1 UNK         0.0812 
    125 H125       31.0913    0.8918  -11.0806 H         1 UNK         0.3205 
    126 H126       33.7436    0.3912  -10.2401 H         1 UNK         0.0754 
    127 H127       33.2364   -1.9571  -10.9719 H         1 UNK         0.0769 
    128 H128       32.6974   -0.7688  -12.1484 H         1 UNK         0.0769 
    129 H129       31.5286   -1.5520  -11.0863 H         1 UNK         0.0769 
    130 H130       34.2921    0.4723   -8.1464 H         1 UNK         0.2981 
    131 H131       34.5681    0.0227   -6.0495 H         1 UNK         0.0541 
    132 H132       31.3116    2.0088   -5.5920 H         1 UNK         0.3459 
    133 H133       32.1900    1.7402   -7.0815 H         1 UNK         0.3459 
    134 H134       34.0954   -2.4991   -6.7997 H         1 UNK         0.0612 
    135 H135       32.6432   -2.3139   -5.8632 H         1 UNK         0.0612 
    136 H136       33.8320   -4.5194   -4.3970 H         1 UNK         0.0624 
    137 H137       34.3748   -3.9706   -2.8294 H         1 UNK         0.0624 
@<TRIPOS>BOND
     1    1    2 1    
     2    1   72 1    
     3    1   73 1    
     4    1   74 1    
     5    2    3 2    
     6    2    4 am   BACKBONE|DICT|INTERRES
     7    4    5 1    
     8    4   75 1    
     9    5    6 1    
    10    5   35 1    
    11    5   76 1    
    12    6    7 1    
    13    6   77 1    
    14    6   78 1    
    15    7    8 1    
    16    8    9 1    
    17    8   79 1    
    18    8   80 1    
    19    9   10 ar   
    20    9   14 ar   
    21   10   11 ar   
    22   10   81 1    
    23   11   12 ar   
    24   11   71 1    
    25   12   13 ar   
    26   12   82 1    
    27   13   14 ar   
    28   13   15 1    
    29   14   83 1    
    30   15   16 1    
    31   15   84 1    
    32   15   85 1    
    33   16   17 1    
    34   17   18 1    
    35   17   86 1    
    36   17   87 1    
    37   18   19 1    
    38   18   37 1    
    39   18   88 1    
    40   19   20 am   BACKBONE|DICT|INTERRES
    41   19   89 1    
    42   20   21 2    
    43   20   22 1    
    44   22   23 1    
    45   22   24 1    
    46   22   90 1    
    47   23   91 1    
    48   23   92 1    
    49   23   93 1    
    50   24   25 am   BACKBONE|DICT|INTERRES
    51   24   94 1    
    52   25   26 2    
    53   25   27 1    
    54   27   28 1    
    55   27   29 1    
    56   27   95 1    
    57   28   96 1    
    58   28   97 1    
    59   28   98 1    
    60   29   30 am   BACKBONE|DICT|INTERRES
    61   29   99 1    
    62   30   31 2    
    63   30   32 1    
    64   32   33 1    
    65   32   34 1    
    66   32  100 1    
    67   33  101 1    
    68   33  102 1    
    69   33  103 1    
    70   34   35 am   BACKBONE|DICT|INTERRES
    71   34  104 1    
    72   35   36 2    
    73   37   38 2    
    74   37   39 am   BACKBONE|DICT|INTERRES
    75   39   40 1    
    76   39  105 1    
    77   40   41 1    
    78   40   42 1    
    79   40  106 1    
    80   41  107 1    
    81   41  108 1    
    82   41  109 1    
    83   42   43 2    
    84   42   44 am   BACKBONE|DICT|INTERRES
    85   44   45 1    
    86   44  110 1    
    87   45   46 1    
    88   45   47 1    
    89   45  111 1    
    90   46  112 1    
    91   46  113 1    
    92   46  114 1    
    93   47   48 2    
    94   47   49 am   BACKBONE|DICT|INTERRES
    95   49   50 1    
    96   49  115 1    
    97   50   51 1    
    98   50   52 1    
    99   50  116 1    
   100   51  117 1    
   101   51  118 1    
   102   51  119 1    
   103   52   53 2    
   104   52   54 am   BACKBONE|DICT|INTERRES
   105   54   55 1    
   106   54  120 1    
   107   55   56 1    
   108   55   57 1    
   109   55  121 1    
   110   56  122 1    
   111   56  123 1    
   112   56  124 1    
   113   57   58 2    
   114   57   59 am   BACKBONE|DICT|INTERRES
   115   59   60 1    
   116   59  125 1    
   117   60   61 1    
   118   60   62 1    
   119   60  126 1    
   120   61  127 1    
   121   61  128 1    
   122   61  129 1    
   123   62   63 2    
   124   62   64 am   BACKBONE|DICT|INTERRES
   125   64   65 1    
   126   64  130 1    
   127   65   66 1    
   128   65   69 1    
   129   65  131 1    
   130   66   67 am   BACKBONE|DICT|INTERRES
   131   66   68 2    
   132   67  132 1    
   133   67  133 1    
   134   69   70 1    
   135   69  134 1    
   136   69  135 1    
   137   70   71 1    
   138   71  136 1    
   139   71  137 1    
@<TRIPOS>SUBSTRUCTURE
     1 UNK         1 GROUP             0       ****    0 ROOT    
