@<TRIPOS>MOLECULE
3R137
137   139    1
SMALL
USER_CHARGES


@<TRIPOS>ATOM
      1 CA         30.3229   -0.7190    0.8839 C.3       0 UNK        -0.2020 
      2 C          30.7178   -0.5217   -0.5780 C.2       0 UNK         0.4855 
      3 O          31.5894    0.3012   -0.8489 O.2       0 UNK        -0.5197 
      4 N          30.1452   -1.2426   -1.5537 N.am      1 UNK        -0.4892 
      5 CA         29.0658   -2.2397   -1.4813 C.3       1 UNK         0.0835 
      6 C6         29.3612   -3.4094   -0.4986 C.3       12 UNK        -0.0855 
      7 S7         28.6645   -5.0034   -1.0520 S.3       12 UNK        -0.2931 
      8 C8         30.0779   -5.7362   -1.9374 C.3       12 UNK         0.0378 
      9 C9         30.3198   -5.0323   -3.2635 C.ar      12 UNK        -0.0802 
     10 C10        31.3121   -4.0523   -3.3774 C.ar      12 UNK        -0.0944 
     11 C11        31.5112   -3.3866   -4.5901 C.ar      12 UNK        -0.0787 
     12 C12        30.7109   -3.7110   -5.6874 C.ar      12 UNK        -0.0862 
     13 C13        29.7208   -4.6912   -5.5931 C.ar      12 UNK        -0.0733 
     14 C14        29.5378   -5.3571   -4.3764 C.ar      12 UNK        -0.0832 
     15 C15        28.8880   -5.0311   -6.8267 C.3       12 UNK         0.0240 
     16 S16        27.1127   -5.2887   -6.4949 S.3       12 UNK        -0.2522 
     17 C17        26.6175   -3.7029   -5.7476 C.3       12 UNK        -0.0967 
     18 CA         26.2897   -2.6100   -6.8041 C.3       5 UNK         0.0660 
     19 N          25.0154   -1.9492   -6.5182 N.am      5 UNK        -0.4015 
     20 C          24.3040   -1.2284   -7.3939 C.2       4 UNK         0.4946 
     21 O          24.6190   -1.0751   -8.5742 O.2       4 UNK        -0.5353 
     22 CA         23.0291   -0.5519   -6.8573 C.3       4 UNK         0.0277 
     23 CB         21.8185   -1.4859   -7.0145 C.3       4 UNK        -0.1981 
     24 N          23.1387   -0.1253   -5.4572 N.am      4 UNK        -0.4209 
     25 C          23.9372    0.8667   -5.0398 C.2       3 UNK         0.4942 
     26 O          24.6637    1.5184   -5.7878 O.2       3 UNK        -0.5208 
     27 CA         23.9674    1.1579   -3.5295 C.3       3 UNK         0.0250 
     28 CB         22.7157    1.9442   -3.1063 C.3       3 UNK        -0.1990 
     29 N          24.1374   -0.0095   -2.6516 N.am      3 UNK        -0.4232 
     30 C          25.0468   -0.9834   -2.7983 C.2       2 UNK         0.4993 
     31 O          25.7265   -1.1507   -3.8124 O.2       2 UNK        -0.5286 
     32 CA         25.2308   -1.9528   -1.6193 C.3       2 UNK         0.0209 
     33 CB         24.3173   -3.1773   -1.7869 C.3       2 UNK        -0.1931 
     34 N          26.6234   -2.4041   -1.5301 N.am      2 UNK        -0.4546 
     35 C          27.6714   -1.6056   -1.2839 C.2       1 UNK         0.5154 
     36 O          27.5580   -0.4252   -0.9429 O.2       1 UNK        -0.5181 
     37 C          27.4143   -1.5633   -6.9019 C.2       5 UNK         0.5014 
     38 O          28.1858   -1.5710   -7.8627 O.2       5 UNK        -0.5248 
     39 N          27.4535   -0.6573   -5.9151 N.am      6 UNK        -0.4434 
     40 CA         28.3929    0.4560   -5.8250 C.3       6 UNK         0.0363 
     41 CB         28.2237    1.1740   -4.4781 C.3       6 UNK        -0.1936 
     42 C          28.2693    1.4363   -6.9978 C.2       6 UNK         0.5081 
     43 O          29.2936    1.8398   -7.5420 O.2       6 UNK        -0.5248 
     44 N          27.0349    1.7609   -7.4077 N.am      7 UNK        -0.4718 
     45 CA         26.7484    2.5959   -8.5784 C.3       7 UNK         0.0273 
     46 CB         25.2441    2.9046   -8.6380 C.3       7 UNK        -0.1935 
     47 C          27.2193    1.9753   -9.9053 C.2       7 UNK         0.5018 
     48 O          27.6497    2.7142  -10.7915 O.2       7 UNK        -0.5186 
     49 N          27.1387    0.6420  -10.0183 N.am      8 UNK        -0.4240 
     50 CA         27.6100   -0.1122  -11.1797 C.3       8 UNK         0.0235 
     51 CB         26.9602   -1.5060  -11.1940 C.3       8 UNK        -0.2000 
     52 C          29.1430   -0.2172  -11.2184 C.2       8 UNK         0.4941 
     53 O          29.7380    0.0214  -12.2701 O.2       8 UNK        -0.5273 
     54 N          29.7528   -0.5787  -10.0811 N.am      9 UNK        -0.4262 
     55 CA         31.1986   -0.7852   -9.9522 C.3       9 UNK         0.0264 
     56 CB         31.4613   -1.6806   -8.7353 C.3       9 UNK        -0.1955 
     57 C          32.0156    0.5123   -9.8332 C.2       9 UNK         0.5031 
     58 O          33.2093    0.4897  -10.1362 O.2       9 UNK        -0.5390 
     59 N          31.3789    1.5947   -9.3651 N.am      10 UNK        -0.4204 
     60 CA         31.9552    2.8981   -9.0138 C.3       10 UNK         0.0237 
     61 CB         32.6206    3.5774  -10.2309 C.3       10 UNK        -0.1985 
     62 C          32.8661    2.8469   -7.7686 C.2       10 UNK         0.4970 
     63 O          33.7378    3.7066   -7.6246 O.2       10 UNK        -0.4914 
     64 N          32.6494    1.8607   -6.8857 N.am      11 UNK        -0.4285 
     65 CA         33.3317    1.7403   -5.5891 C.3       11 UNK         0.1007 
     66 C          32.7015    2.6434   -4.4912 C.2       11 UNK         0.5703 
     67 N          33.4080    2.8590   -3.3895 N.am      11 UNK        -0.7361 
     68 O          31.5862    3.1460   -4.6193 O.2       11 UNK        -0.4986 
     69 C69        33.4959    0.2598   -5.1469 C.3       12 UNK        -0.0947 
     70 S70        31.9443   -0.6563   -4.8590 S.3       12 UNK        -0.2240 
     71 C71        32.6106   -2.3448   -4.7367 C.3       12 UNK         0.0194 
     72 H72        30.6303    0.1432    1.4754 H         1 UNK         0.0906 
     73 H73        29.2486   -0.8288    1.0139 H         1 UNK         0.0906 
     74 H74        30.8194   -1.5965    1.2962 H         1 UNK         0.0906 
     75 H75        30.4545   -1.0490   -2.4967 H         1 UNK         0.3140 
     76 H76        29.0382   -2.6474   -2.4929 H         1 UNK         0.1085 
     77 H77        30.4372   -3.5400   -0.3748 H         1 UNK         0.0836 
     78 H78        28.9764   -3.1974    0.5004 H         1 UNK         0.0836 
     79 H79        30.9697   -5.7047   -1.3093 H         1 UNK         0.0731 
     80 H80        29.8720   -6.7924   -2.1176 H         1 UNK         0.0731 
     81 H81        31.9239   -3.8036   -2.5210 H         1 UNK         0.1312 
     82 H82        30.8679   -3.2005   -6.6231 H         1 UNK         0.1406 
     83 H83        28.7762   -6.1202   -4.2893 H         1 UNK         0.1631 
     84 H84        28.9831   -4.2486   -7.5813 H         1 UNK         0.0717 
     85 H85        29.2918   -5.9391   -7.2759 H         1 UNK         0.0717 
     86 H86        25.7349   -3.9255   -5.1458 H         1 UNK         0.0934 
     87 H87        27.3648   -3.3800   -5.0194 H         1 UNK         0.0934 
     88 H88        26.1940   -3.0750   -7.7880 H         1 UNK         0.0739 
     89 H89        24.7408   -1.9252   -5.5447 H         1 UNK         0.3093 
     90 H90        22.8529    0.3378   -7.4660 H         1 UNK         0.0818 
     91 H91        20.8931   -0.9891   -6.7227 H         1 UNK         0.0819 
     92 H92        21.7015   -1.7999   -8.0529 H         1 UNK         0.0819 
     93 H93        21.9212   -2.3887   -6.4111 H         1 UNK         0.0819 
     94 H94        22.5786   -0.6164   -4.7753 H         1 UNK         0.3041 
     95 H95        24.8341    1.7986   -3.3548 H         1 UNK         0.0784 
     96 H96        22.5726    2.8222   -3.7383 H         1 UNK         0.0793 
     97 H97        21.8118    1.3384   -3.1803 H         1 UNK         0.0793 
     98 H98        22.7981    2.2999   -2.0791 H         1 UNK         0.0793 
     99 H99        23.6048    0.0122   -1.7937 H         1 UNK         0.3024 
    100 H100       24.9793   -1.4365   -0.6902 H         1 UNK         0.1171 
    101 H101       24.4224   -3.8678   -0.9497 H         1 UNK         0.0786 
    102 H102       23.2682   -2.8817   -1.8309 H         1 UNK         0.0786 
    103 H103       24.5407   -3.7256   -2.7033 H         1 UNK         0.0786 
    104 H104       26.8058   -3.3643   -1.7881 H         1 UNK         0.2977 
    105 H105       26.7813   -0.7491   -5.1523 H         1 UNK         0.3127 
    106 H106       29.3954    0.0316   -5.8648 H         1 UNK         0.0770 
    107 H107       27.2238    1.5950   -4.3684 H         1 UNK         0.0814 
    108 H108       28.9389    1.9921   -4.3815 H         1 UNK         0.0814 
    109 H109       28.3941    0.4951   -3.6425 H         1 UNK         0.0814 
    110 H110       26.2339    1.4447   -6.8654 H         1 UNK         0.2983 
    111 H111       27.2862    3.5380   -8.4514 H         1 UNK         0.0947 
    112 H112       25.0040    3.5234   -9.5037 H         1 UNK         0.0806 
    113 H113       24.9164    3.4483   -7.7518 H         1 UNK         0.0806 
    114 H114       24.6492    1.9931   -8.7105 H         1 UNK         0.0806 
    115 H115       26.7650    0.1092   -9.2435 H         1 UNK         0.3000 
    116 H116       27.2902    0.4137  -12.0822 H         1 UNK         0.0850 
    117 H117       27.2794   -2.0759  -12.0675 H         1 UNK         0.0810 
    118 H118       25.8730   -1.4341  -11.2326 H         1 UNK         0.0810 
    119 H119       27.2220   -2.0890  -10.3107 H         1 UNK         0.0810 
    120 H120       29.1808   -0.8049   -9.2688 H         1 UNK         0.3040 
    121 H121       31.5530   -1.3118  -10.8410 H         1 UNK         0.0766 
    122 H122       30.9771   -2.6496   -8.8564 H         1 UNK         0.0812 
    123 H123       31.0859   -1.2232   -7.8191 H         1 UNK         0.0812 
    124 H124       32.5282   -1.8636   -8.5989 H         1 UNK         0.0812 
    125 H125       30.4153    1.4815   -9.0588 H         1 UNK         0.3205 
    126 H126       31.1073    3.5212   -8.7259 H         1 UNK         0.0754 
    127 H127       32.8766    4.6138  -10.0075 H         1 UNK         0.0769 
    128 H128       31.9528    3.5887  -11.0923 H         1 UNK         0.0769 
    129 H129       33.5420    3.0744  -10.5253 H         1 UNK         0.0769 
    130 H130       31.8654    1.2429   -7.0324 H         1 UNK         0.2981 
    131 H131       34.3456    2.1209   -5.7287 H         1 UNK         0.0541 
    132 H132       34.3199    2.4490   -3.2638 H         1 UNK         0.3459 
    133 H133       33.0119    3.4316   -2.6611 H         1 UNK         0.3459 
    134 H134       34.0967    0.2008   -4.2378 H         1 UNK         0.0612 
    135 H135       34.0669   -0.2724   -5.9093 H         1 UNK         0.0612 
    136 H136       33.3020   -2.3939   -3.8940 H         1 UNK         0.0624 
    137 H137       33.1948   -2.5674   -5.6309 H         1 UNK         0.0624 
@<TRIPOS>BOND
     1    1    2 1    
     2    1   72 1    
     3    1   73 1    
     4    1   74 1    
     5    2    3 2    
     6    2    4 am   BACKBONE|DICT|INTERRES
     7    4    5 1    
     8    4   75 1    
     9    5    6 1    
    10    5   35 1    
    11    5   76 1    
    12    6    7 1    
    13    6   77 1    
    14    6   78 1    
    15    7    8 1    
    16    8    9 1    
    17    8   79 1    
    18    8   80 1    
    19    9   10 ar   
    20    9   14 ar   
    21   10   11 ar   
    22   10   81 1    
    23   11   12 ar   
    24   11   71 1    
    25   12   13 ar   
    26   12   82 1    
    27   13   14 ar   
    28   13   15 1    
    29   14   83 1    
    30   15   16 1    
    31   15   84 1    
    32   15   85 1    
    33   16   17 1    
    34   17   18 1    
    35   17   86 1    
    36   17   87 1    
    37   18   19 1    
    38   18   37 1    
    39   18   88 1    
    40   19   20 am   BACKBONE|DICT|INTERRES
    41   19   89 1    
    42   20   21 2    
    43   20   22 1    
    44   22   23 1    
    45   22   24 1    
    46   22   90 1    
    47   23   91 1    
    48   23   92 1    
    49   23   93 1    
    50   24   25 am   BACKBONE|DICT|INTERRES
    51   24   94 1    
    52   25   26 2    
    53   25   27 1    
    54   27   28 1    
    55   27   29 1    
    56   27   95 1    
    57   28   96 1    
    58   28   97 1    
    59   28   98 1    
    60   29   30 am   BACKBONE|DICT|INTERRES
    61   29   99 1    
    62   30   31 2    
    63   30   32 1    
    64   32   33 1    
    65   32   34 1    
    66   32  100 1    
    67   33  101 1    
    68   33  102 1    
    69   33  103 1    
    70   34   35 am   BACKBONE|DICT|INTERRES
    71   34  104 1    
    72   35   36 2    
    73   37   38 2    
    74   37   39 am   BACKBONE|DICT|INTERRES
    75   39   40 1    
    76   39  105 1    
    77   40   41 1    
    78   40   42 1    
    79   40  106 1    
    80   41  107 1    
    81   41  108 1    
    82   41  109 1    
    83   42   43 2    
    84   42   44 am   BACKBONE|DICT|INTERRES
    85   44   45 1    
    86   44  110 1    
    87   45   46 1    
    88   45   47 1    
    89   45  111 1    
    90   46  112 1    
    91   46  113 1    
    92   46  114 1    
    93   47   48 2    
    94   47   49 am   BACKBONE|DICT|INTERRES
    95   49   50 1    
    96   49  115 1    
    97   50   51 1    
    98   50   52 1    
    99   50  116 1    
   100   51  117 1    
   101   51  118 1    
   102   51  119 1    
   103   52   53 2    
   104   52   54 am   BACKBONE|DICT|INTERRES
   105   54   55 1    
   106   54  120 1    
   107   55   56 1    
   108   55   57 1    
   109   55  121 1    
   110   56  122 1    
   111   56  123 1    
   112   56  124 1    
   113   57   58 2    
   114   57   59 am   BACKBONE|DICT|INTERRES
   115   59   60 1    
   116   59  125 1    
   117   60   61 1    
   118   60   62 1    
   119   60  126 1    
   120   61  127 1    
   121   61  128 1    
   122   61  129 1    
   123   62   63 2    
   124   62   64 am   BACKBONE|DICT|INTERRES
   125   64   65 1    
   126   64  130 1    
   127   65   66 1    
   128   65   69 1    
   129   65  131 1    
   130   66   67 am   BACKBONE|DICT|INTERRES
   131   66   68 2    
   132   67  132 1    
   133   67  133 1    
   134   69   70 1    
   135   69  134 1    
   136   69  135 1    
   137   70   71 1    
   138   71  136 1    
   139   71  137 1    
@<TRIPOS>SUBSTRUCTURE
     1 UNK         1 GROUP             0       ****    0 ROOT    
