@<TRIPOS>MOLECULE
3R137
137   139    1
SMALL
USER_CHARGES


@<TRIPOS>ATOM
      1 CA         26.5759    1.7582   -0.1126 C.3       0 UNK        -0.2020 
      2 C          26.4912    0.6834   -1.1850 C.2       0 UNK         0.4855 
      3 O          25.8576    0.9048   -2.2162 O.2       0 UNK        -0.5197 
      4 N          27.1093   -0.4809   -0.9339 N.am      1 UNK        -0.4892 
      5 CA         27.2607   -1.6277   -1.8479 C.3       1 UNK         0.0835 
      6 C6         28.0321   -2.7895   -1.1732 C.3       12 UNK        -0.0855 
      7 S7         29.6734   -2.2925   -0.5435 S.3       12 UNK        -0.2931 
      8 C8         30.6406   -3.8250   -0.7457 C.3       12 UNK         0.0378 
      9 C9         31.1327   -3.9933   -2.1755 C.ar      12 UNK        -0.0802 
     10 C10        32.3096   -3.3626   -2.5891 C.ar      12 UNK        -0.0944 
     11 C11        32.7501   -3.4775   -3.9109 C.ar      12 UNK        -0.0787 
     12 C12        32.0110   -4.2393   -4.8208 C.ar      12 UNK        -0.0862 
     13 C13        30.8269   -4.8661   -4.4197 C.ar      12 UNK        -0.0733 
     14 C14        30.4055   -4.7588   -3.0911 C.ar      12 UNK        -0.0832 
     15 C15        29.9540   -5.5900   -5.4369 C.3       12 UNK         0.0240 
     16 S16        29.1749   -4.4475   -6.6342 S.3       12 UNK        -0.2522 
     17 C17        28.8066   -2.9830   -5.6090 C.3       12 UNK        -0.0967 
     18 CA         28.0064   -1.9102   -6.3819 C.3       5 UNK         0.0660 
     19 N          26.5908   -2.2480   -6.4651 N.am      5 UNK        -0.4015 
     20 C          25.8850   -2.3491   -7.5949 C.2       4 UNK         0.4946 
     21 O          26.3795   -2.3832   -8.7219 O.2       4 UNK        -0.5353 
     22 CA         24.3535   -2.3745   -7.4472 C.3       4 UNK         0.0277 
     23 CB         23.8538   -3.8159   -7.2605 C.3       4 UNK        -0.1981 
     24 N          23.8596   -1.5457   -6.3433 N.am      4 UNK        -0.4209 
     25 C          24.0392   -0.2252   -6.2009 C.2       3 UNK         0.4942 
     26 O          24.6160    0.4751   -7.0330 O.2       3 UNK        -0.5208 
     27 CA         23.5126    0.4376   -4.9127 C.3       3 UNK         0.0250 
     28 CB         22.0833    0.9774   -5.1082 C.3       3 UNK        -0.1990 
     29 N          23.6256   -0.3858   -3.7000 N.am      3 UNK        -0.4232 
     30 C          23.0038   -1.5367   -3.3947 C.2       2 UNK         0.4993 
     31 O          22.1563   -2.0627   -4.1181 O.2       2 UNK        -0.5286 
     32 CA         23.4377   -2.2469   -2.0939 C.3       2 UNK         0.0209 
     33 CB         23.2016   -3.7718   -2.1469 C.3       2 UNK        -0.1931 
     34 N          24.8253   -1.9568   -1.7068 N.am      2 UNK        -0.4546 
     35 C          25.9351   -2.1620   -2.4359 C.2       1 UNK         0.5154 
     36 O          25.9420   -2.7218   -3.5340 O.2       1 UNK        -0.5181 
     37 C          28.1176   -0.5461   -5.6803 C.2       5 UNK         0.5014 
     38 O          27.1682   -0.0919   -5.0388 O.2       5 UNK        -0.5248 
     39 N          29.2901    0.0819   -5.8153 N.am      6 UNK        -0.4434 
     40 CA         29.7095    1.3739   -5.2659 C.3       6 UNK         0.0363 
     41 CB         29.5440    1.4468   -3.7341 C.3       6 UNK        -0.1936 
     42 C          29.0552    2.5681   -5.9771 C.2       6 UNK         0.5081 
     43 O          29.7782    3.4587   -6.4233 O.2       6 UNK        -0.5248 
     44 N          27.7204    2.5686   -6.0894 N.am      7 UNK        -0.4718 
     45 CA         26.9618    3.6008   -6.7969 C.3       7 UNK         0.0273 
     46 CB         25.5668    3.7708   -6.1726 C.3       7 UNK        -0.1935 
     47 C          26.8952    3.3021   -8.3020 C.2       7 UNK         0.5018 
     48 O          27.4330    4.0799   -9.0909 O.2       7 UNK        -0.5186 
     49 N          26.2495    2.1884   -8.6819 N.am      8 UNK        -0.4240 
     50 CA         26.0721    1.7916  -10.0848 C.3       8 UNK         0.0235 
     51 CB         24.9085    0.7943  -10.1978 C.3       8 UNK        -0.2000 
     52 C          27.3406    1.2080  -10.7316 C.2       8 UNK         0.4941 
     53 O          27.4680    1.2722  -11.9553 O.2       8 UNK        -0.5273 
     54 N          28.2484    0.6549   -9.9193 N.am      9 UNK        -0.4262 
     55 CA         29.5188    0.0796  -10.3498 C.3       9 UNK         0.0264 
     56 CB         29.3569   -1.4321  -10.5953 C.3       9 UNK        -0.1955 
     57 C          30.5579    0.3823   -9.2694 C.2       9 UNK         0.5031 
     58 O          30.5789   -0.2982   -8.2416 O.2       9 UNK        -0.5390 
     59 N          31.3628    1.4277   -9.4937 N.am      10 UNK        -0.4204 
     60 CA         32.4167    1.8771   -8.5820 C.3       10 UNK         0.0237 
     61 CB         32.9740    3.2215   -9.0774 C.3       10 UNK        -0.1985 
     62 C          33.5459    0.8420   -8.4415 C.2       10 UNK         0.4970 
     63 O          33.8838    0.1650   -9.4157 O.2       10 UNK        -0.4914 
     64 N          34.1181    0.7645   -7.2361 N.am      11 UNK        -0.4285 
     65 CA         35.1843   -0.1826   -6.8697 C.3       11 UNK         0.1007 
     66 C          36.5940    0.1716   -7.4282 C.2       11 UNK         0.5703 
     67 N          36.8100    1.3499   -8.0015 N.am      11 UNK        -0.7361 
     68 O          37.5087   -0.6449   -7.3461 O.2       11 UNK        -0.4986 
     69 C69        35.2333   -0.4104   -5.3356 C.3       12 UNK        -0.0947 
     70 S70        33.6376   -0.9876   -4.6654 S.3       12 UNK        -0.2240 
     71 C71        34.0012   -2.7430   -4.3626 C.3       12 UNK         0.0194 
     72 H72        25.5766    2.0286    0.2273 H         1 UNK         0.0906 
     73 H73        27.1521    1.4296    0.7522 H         1 UNK         0.0906 
     74 H74        27.0512    2.6514   -0.5172 H         1 UNK         0.0906 
     75 H75        27.6134   -0.5816   -0.0635 H         1 UNK         0.3140 
     76 H76        27.8518   -1.2728   -2.6941 H         1 UNK         0.1085 
     77 H77        27.4592   -3.1972   -0.3379 H         1 UNK         0.0836 
     78 H78        28.1559   -3.6091   -1.8809 H         1 UNK         0.0836 
     79 H79        31.4958   -3.7910   -0.0689 H         1 UNK         0.0731 
     80 H80        30.0441   -4.6846   -0.4355 H         1 UNK         0.0731 
     81 H81        32.8695   -2.7577   -1.8887 H         1 UNK         0.1312 
     82 H82        32.3284   -4.3068   -5.8526 H         1 UNK         0.1406 
     83 H83        29.4904   -5.2433   -2.7799 H         1 UNK         0.1631 
     84 H84        29.1671   -6.1547   -4.9345 H         1 UNK         0.0717 
     85 H85        30.5549   -6.3205   -5.9801 H         1 UNK         0.0717 
     86 H86        28.2800   -3.2936   -4.7051 H         1 UNK         0.0934 
     87 H87        29.7637   -2.5748   -5.2787 H         1 UNK         0.0934 
     88 H88        28.4318   -1.7932   -7.3802 H         1 UNK         0.0739 
     89 H89        26.0972   -2.1917   -5.5797 H         1 UNK         0.3093 
     90 H90        23.9269   -1.9769   -8.3701 H         1 UNK         0.0818 
     91 H91        22.7646   -3.8596   -7.2439 H         1 UNK         0.0819 
     92 H92        24.1914   -4.4549   -8.0778 H         1 UNK         0.0819 
     93 H93        24.2217   -4.2519   -6.3306 H         1 UNK         0.0819 
     94 H94        23.3229   -2.0115   -5.6167 H         1 UNK         0.3041 
     95 H95        24.1635    1.2919   -4.7231 H         1 UNK         0.0784 
     96 H96        22.0451    1.6746   -5.9464 H         1 UNK         0.0793 
     97 H97        21.3698    0.1804   -5.3188 H         1 UNK         0.0793 
     98 H98        21.7380    1.5136   -4.2244 H         1 UNK         0.0793 
     99 H99        24.3571   -0.0706   -3.0661 H         1 UNK         0.3024 
    100 H100       22.8022   -1.8390   -1.3061 H         1 UNK         0.1171 
    101 H101       23.7532   -4.2385   -2.9638 H         1 UNK         0.0786 
    102 H102       22.1456   -4.0009   -2.2960 H         1 UNK         0.0786 
    103 H103       23.5068   -4.2533   -1.2180 H         1 UNK         0.0786 
    104 H104       24.9432   -1.4710   -0.8282 H         1 UNK         0.2977 
    105 H105       29.9459   -0.3076   -6.4928 H         1 UNK         0.3127 
    106 H106       30.7793    1.4332   -5.4720 H         1 UNK         0.0770 
    107 H107       29.9998    2.3557   -3.3402 H         1 UNK         0.0814 
    108 H108       30.0250    0.6013   -3.2418 H         1 UNK         0.0814 
    109 H109       28.4963    1.4583   -3.4331 H         1 UNK         0.0814 
    110 H110       27.2115    1.7770   -5.7036 H         1 UNK         0.2983 
    111 H111       27.4774    4.5570   -6.6790 H         1 UNK         0.0947 
    112 H112       25.0209    4.5788   -6.6612 H         1 UNK         0.0806 
    113 H113       25.6359    4.0210   -5.1138 H         1 UNK         0.0806 
    114 H114       24.9594    2.8738   -6.2624 H         1 UNK         0.0806 
    115 H115       25.7896    1.6059   -7.9834 H         1 UNK         0.3000 
    116 H116       25.8004    2.6823  -10.6557 H         1 UNK         0.0850 
    117 H117       23.9881    1.2067   -9.7838 H         1 UNK         0.0810 
    118 H118       25.1256   -0.1350   -9.6718 H         1 UNK         0.0810 
    119 H119       24.7115    0.5394  -11.2399 H         1 UNK         0.0810 
    120 H120       28.0772    0.6623   -8.9240 H         1 UNK         0.3040 
    121 H121       29.8460    0.5447  -11.2825 H         1 UNK         0.0766 
    122 H122       30.3073   -1.8844  -10.8807 H         1 UNK         0.0812 
    123 H123       28.6475   -1.6275  -11.3995 H         1 UNK         0.0812 
    124 H124       29.0007   -1.9541   -9.7068 H         1 UNK         0.0812 
    125 H125       31.2808    1.9265  -10.3677 H         1 UNK         0.3205 
    126 H126       31.9607    2.0325   -7.6023 H         1 UNK         0.0754 
    127 H127       32.1900    3.9772   -9.1358 H         1 UNK         0.0769 
    128 H128       33.4300    3.1313  -10.0644 H         1 UNK         0.0769 
    129 H129       33.7373    3.6040   -8.3986 H         1 UNK         0.0769 
    130 H130       33.7942    1.3657   -6.4934 H         1 UNK         0.2981 
    131 H131       34.9287   -1.1415   -7.3250 H         1 UNK         0.0541 
    132 H132       37.7267    1.5623   -8.3623 H         1 UNK         0.3459 
    133 H133       36.0673    2.0251   -8.0787 H         1 UNK         0.3459 
    134 H134       35.4994    0.5158   -4.8234 H         1 UNK         0.0612 
    135 H135       36.0093   -1.1328   -5.0750 H         1 UNK         0.0612 
    136 H136       34.4012   -3.1927   -5.2728 H         1 UNK         0.0624 
    137 H137       34.7783   -2.8287   -3.6015 H         1 UNK         0.0624 
@<TRIPOS>BOND
     1    1    2 1    
     2    1   72 1    
     3    1   73 1    
     4    1   74 1    
     5    2    3 2    
     6    2    4 am   BACKBONE|DICT|INTERRES
     7    4    5 1    
     8    4   75 1    
     9    5    6 1    
    10    5   35 1    
    11    5   76 1    
    12    6    7 1    
    13    6   77 1    
    14    6   78 1    
    15    7    8 1    
    16    8    9 1    
    17    8   79 1    
    18    8   80 1    
    19    9   10 ar   
    20    9   14 ar   
    21   10   11 ar   
    22   10   81 1    
    23   11   12 ar   
    24   11   71 1    
    25   12   13 ar   
    26   12   82 1    
    27   13   14 ar   
    28   13   15 1    
    29   14   83 1    
    30   15   16 1    
    31   15   84 1    
    32   15   85 1    
    33   16   17 1    
    34   17   18 1    
    35   17   86 1    
    36   17   87 1    
    37   18   19 1    
    38   18   37 1    
    39   18   88 1    
    40   19   20 am   BACKBONE|DICT|INTERRES
    41   19   89 1    
    42   20   21 2    
    43   20   22 1    
    44   22   23 1    
    45   22   24 1    
    46   22   90 1    
    47   23   91 1    
    48   23   92 1    
    49   23   93 1    
    50   24   25 am   BACKBONE|DICT|INTERRES
    51   24   94 1    
    52   25   26 2    
    53   25   27 1    
    54   27   28 1    
    55   27   29 1    
    56   27   95 1    
    57   28   96 1    
    58   28   97 1    
    59   28   98 1    
    60   29   30 am   BACKBONE|DICT|INTERRES
    61   29   99 1    
    62   30   31 2    
    63   30   32 1    
    64   32   33 1    
    65   32   34 1    
    66   32  100 1    
    67   33  101 1    
    68   33  102 1    
    69   33  103 1    
    70   34   35 am   BACKBONE|DICT|INTERRES
    71   34  104 1    
    72   35   36 2    
    73   37   38 2    
    74   37   39 am   BACKBONE|DICT|INTERRES
    75   39   40 1    
    76   39  105 1    
    77   40   41 1    
    78   40   42 1    
    79   40  106 1    
    80   41  107 1    
    81   41  108 1    
    82   41  109 1    
    83   42   43 2    
    84   42   44 am   BACKBONE|DICT|INTERRES
    85   44   45 1    
    86   44  110 1    
    87   45   46 1    
    88   45   47 1    
    89   45  111 1    
    90   46  112 1    
    91   46  113 1    
    92   46  114 1    
    93   47   48 2    
    94   47   49 am   BACKBONE|DICT|INTERRES
    95   49   50 1    
    96   49  115 1    
    97   50   51 1    
    98   50   52 1    
    99   50  116 1    
   100   51  117 1    
   101   51  118 1    
   102   51  119 1    
   103   52   53 2    
   104   52   54 am   BACKBONE|DICT|INTERRES
   105   54   55 1    
   106   54  120 1    
   107   55   56 1    
   108   55   57 1    
   109   55  121 1    
   110   56  122 1    
   111   56  123 1    
   112   56  124 1    
   113   57   58 2    
   114   57   59 am   BACKBONE|DICT|INTERRES
   115   59   60 1    
   116   59  125 1    
   117   60   61 1    
   118   60   62 1    
   119   60  126 1    
   120   61  127 1    
   121   61  128 1    
   122   61  129 1    
   123   62   63 2    
   124   62   64 am   BACKBONE|DICT|INTERRES
   125   64   65 1    
   126   64  130 1    
   127   65   66 1    
   128   65   69 1    
   129   65  131 1    
   130   66   67 am   BACKBONE|DICT|INTERRES
   131   66   68 2    
   132   67  132 1    
   133   67  133 1    
   134   69   70 1    
   135   69  134 1    
   136   69  135 1    
   137   70   71 1    
   138   71  136 1    
   139   71  137 1    
@<TRIPOS>SUBSTRUCTURE
     1 UNK         1 GROUP             0       ****    0 ROOT    
