@<TRIPOS>MOLECULE
3R137
137   139    1
SMALL
USER_CHARGES


@<TRIPOS>ATOM
      1 CA         25.5905   -5.9627    1.2995 C.3       0 UNK        -0.2020 
      2 C          26.3664   -4.6648    1.4672 C.2       0 UNK         0.4855 
      3 O          26.8964   -4.4022    2.5474 O.2       0 UNK        -0.5197 
      4 N          26.4327   -3.8499    0.4115 N.am      1 UNK        -0.4892 
      5 CA         27.1185   -2.5601    0.3729 C.3       1 UNK         0.0835 
      6 C6         28.6658   -2.6913    0.2555 C.3       12 UNK        -0.0855 
      7 S7         29.2683   -3.6823   -1.1626 S.3       12 UNK        -0.2931 
      8 C8         29.5187   -2.3907   -2.4233 C.3       12 UNK         0.0378 
      9 C9         30.1605   -2.9413   -3.6877 C.ar      12 UNK        -0.0802 
     10 C10        31.4546   -2.5552   -4.0476 C.ar      12 UNK        -0.0944 
     11 C11        32.0379   -3.0367   -5.2231 C.ar      12 UNK        -0.0787 
     12 C12        31.3158   -3.9103   -6.0430 C.ar      12 UNK        -0.0862 
     13 C13        30.0250   -4.3154   -5.6875 C.ar      12 UNK        -0.0733 
     14 C14        29.4524   -3.8233   -4.5096 C.ar      12 UNK        -0.0832 
     15 C15        29.2759   -5.3258   -6.5483 C.3       12 UNK         0.0240 
     16 S16        28.4143   -4.5570   -7.9571 S.3       12 UNK        -0.2522 
     17 C17        26.9749   -3.7920   -7.1330 C.3       12 UNK        -0.0967 
     18 CA         26.4939   -2.4697   -7.7900 C.3       5 UNK         0.0660 
     19 N          25.2169   -1.9927   -7.2388 N.am      5 UNK        -0.4015 
     20 C          24.9467   -1.6866   -5.9623 C.2       4 UNK         0.4946 
     21 O          25.7933   -1.6848   -5.0613 O.2       4 UNK        -0.5353 
     22 CA         23.4892   -1.3311   -5.6337 C.3       4 UNK         0.0277 
     23 CB         22.5457   -2.5283   -5.8624 C.3       4 UNK        -0.1981 
     24 N          23.4418   -0.9271   -4.2348 N.am      4 UNK        -0.4209 
     25 C          22.5226   -0.1572   -3.6412 C.2       3 UNK         0.4942 
     26 O          21.5231    0.2821   -4.2109 O.2       3 UNK        -0.5208 
     27 CA         22.7637    0.1874   -2.1583 C.3       3 UNK         0.0250 
     28 CB         21.9255   -0.7261   -1.2492 C.3       3 UNK        -0.1990 
     29 N          24.1768    0.0595   -1.7926 N.am      3 UNK        -0.4232 
     30 C          25.1283    0.9491   -2.0978 C.2       2 UNK         0.4993 
     31 O          24.8805    2.0672   -2.5523 O.2       2 UNK        -0.5286 
     32 CA         26.5973    0.5094   -1.9065 C.3       2 UNK         0.0209 
     33 CB         27.5558    1.7075   -1.7639 C.3       2 UNK        -0.1931 
     34 N          26.8509   -0.4260   -0.8013 N.am      2 UNK        -0.4546 
     35 C          26.5127   -1.7221   -0.7653 C.2       1 UNK         0.5154 
     36 O          25.7765   -2.2571   -1.6000 O.2       1 UNK        -0.5181 
     37 C          27.5891   -1.3834   -7.8204 C.2       5 UNK         0.5014 
     38 O          28.1101   -1.0934   -8.8978 O.2       5 UNK        -0.5248 
     39 N          27.9062   -0.7915   -6.6611 N.am      6 UNK        -0.4434 
     40 CA         29.0102    0.1502   -6.4442 C.3       6 UNK         0.0363 
     41 CB         29.0063    0.6191   -4.9821 C.3       6 UNK        -0.1936 
     42 C          29.0160    1.3676   -7.3818 C.2       6 UNK         0.5081 
     43 O          30.0920    1.8106   -7.7805 O.2       6 UNK        -0.5248 
     44 N          27.8258    1.8691   -7.7362 N.am      7 UNK        -0.4718 
     45 CA         27.6434    2.9850   -8.6677 C.3       7 UNK         0.0273 
     46 CB         26.1997    3.5017   -8.5606 C.3       7 UNK        -0.1935 
     47 C          27.9798    2.6267  -10.1269 C.2       7 UNK         0.5018 
     48 O          28.4260    3.5011  -10.8698 O.2       7 UNK        -0.5186 
     49 N          27.7665    1.3603  -10.5103 N.am      8 UNK        -0.4240 
     50 CA         28.0826    0.8318  -11.8391 C.3       8 UNK         0.0235 
     51 CB         27.1056   -0.3034  -12.1879 C.3       8 UNK        -0.2000 
     52 C          29.5349    0.3393  -11.9083 C.2       8 UNK         0.4941 
     53 O          30.2092    0.5748  -12.9110 O.2       8 UNK        -0.5273 
     54 N          29.9940   -0.3166  -10.8336 N.am      9 UNK        -0.4262 
     55 CA         31.3578   -0.8242  -10.6687 C.3       9 UNK         0.0264 
     56 CB         31.3632   -1.8454   -9.5191 C.3       9 UNK        -0.1955 
     57 C          32.4084    0.2784  -10.4270 C.2       9 UNK         0.5031 
     58 O          33.5997    0.0039  -10.5775 O.2       9 UNK        -0.5390 
     59 N          31.9538    1.4874  -10.0611 N.am      10 UNK        -0.4204 
     60 CA         32.7355    2.6758   -9.6972 C.3       10 UNK         0.0237 
     61 CB         33.5928    3.1753  -10.8803 C.3       10 UNK        -0.1985 
     62 C          33.5381    2.4681   -8.3984 C.2       10 UNK         0.4970 
     63 O          34.6934    2.8881   -8.3070 O.2       10 UNK        -0.4914 
     64 N          32.8946    1.8252   -7.4181 N.am      11 UNK        -0.4285 
     65 CA         33.4383    1.5441   -6.0814 C.3       11 UNK         0.1007 
     66 C          33.0980    2.6456   -5.0378 C.2       11 UNK         0.5703 
     67 N          32.2306    3.6058   -5.3394 N.am      11 UNK        -0.7361 
     68 O          33.6422    2.6360   -3.9363 O.2       11 UNK        -0.4986 
     69 C69        33.0039    0.1456   -5.5707 C.3       12 UNK        -0.0947 
     70 S70        33.5096   -1.1984   -6.6941 S.3       12 UNK        -0.2240 
     71 C71        33.4614   -2.6407   -5.5888 C.3       12 UNK         0.0194 
     72 H72        26.2427   -6.8158    1.4846 H         1 UNK         0.0906 
     73 H73        24.7663   -6.0025    2.0112 H         1 UNK         0.0906 
     74 H74        25.1775   -6.0637    0.2959 H         1 UNK         0.0906 
     75 H75        25.9531   -4.0700   -0.4540 H         1 UNK         0.3140 
     76 H76        26.8857   -2.0320    1.3006 H         1 UNK         0.1085 
     77 H77        29.1401   -1.7085    0.2391 H         1 UNK         0.0836 
     78 H78        29.0468   -3.1673    1.1603 H         1 UNK         0.0836 
     79 H79        28.5582   -1.9518   -2.6910 H         1 UNK         0.0731 
     80 H80        30.1241   -1.5855   -2.0040 H         1 UNK         0.0731 
     81 H81        32.0110   -1.8796   -3.4126 H         1 UNK         0.1312 
     82 H82        31.7659   -4.2894   -6.9505 H         1 UNK         0.1406 
     83 H83        28.4595   -4.1359   -4.2162 H         1 UNK         0.1631 
     84 H84        28.5592   -5.8868   -5.9464 H         1 UNK         0.0717 
     85 H85        29.9819   -6.0622   -6.9353 H         1 UNK         0.0717 
     86 H86        26.1649   -4.5228   -7.1464 H         1 UNK         0.0934 
     87 H87        27.2025   -3.6276   -6.0815 H         1 UNK         0.0934 
     88 H88        26.2752   -2.7001   -8.8343 H         1 UNK         0.0739 
     89 H89        24.4644   -1.9277   -7.9101 H         1 UNK         0.3093 
     90 H90        23.1884   -0.4902   -6.2621 H         1 UNK         0.0818 
     91 H91        21.5178   -2.2800   -5.5974 H         1 UNK         0.0819 
     92 H92        22.5381   -2.8382   -6.9078 H         1 UNK         0.0819 
     93 H93        22.8428   -3.3923   -5.2664 H         1 UNK         0.0819 
     94 H94        24.2640   -1.2121   -3.7138 H         1 UNK         0.3041 
     95 H95        22.4462    1.2202   -1.9984 H         1 UNK         0.0784 
     96 H96        20.8634   -0.6402   -1.4829 H         1 UNK         0.0793 
     97 H97        22.2018   -1.7751   -1.3650 H         1 UNK         0.0793 
     98 H98        22.0481   -0.4603   -0.1991 H         1 UNK         0.0793 
     99 H99        24.4904   -0.8555   -1.4819 H         1 UNK         0.3024 
    100 H100       26.8588   -0.0095   -2.8316 H         1 UNK         0.1171 
    101 H101       27.4682    2.3915   -2.6091 H         1 UNK         0.0786 
    102 H102       28.5959    1.3824   -1.7277 H         1 UNK         0.0786 
    103 H103       27.3494    2.2805   -0.8592 H         1 UNK         0.0786 
    104 H104       27.4097   -0.0586   -0.0441 H         1 UNK         0.2977 
    105 H105       27.3660   -1.0753   -5.8461 H         1 UNK         0.3127 
    106 H106       29.9333   -0.4030   -6.6258 H         1 UNK         0.0770 
    107 H107       29.1341   -0.2174   -4.2980 H         1 UNK         0.0814 
    108 H108       28.0751    1.1262   -4.7289 H         1 UNK         0.0814 
    109 H109       29.8207    1.3193   -4.7899 H         1 UNK         0.0814 
    110 H110       26.9935    1.4416   -7.3573 H         1 UNK         0.2983 
    111 H111       28.3178    3.7902   -8.3669 H         1 UNK         0.0947 
    112 H112       26.0401    4.3524   -9.2249 H         1 UNK         0.0806 
    113 H113       25.9720    3.8370   -7.5486 H         1 UNK         0.0806 
    114 H114       25.4734    2.7350   -8.8332 H         1 UNK         0.0806 
    115 H115       27.4751    0.6854   -9.8134 H         1 UNK         0.3000 
    116 H116       27.9593    1.6227  -12.5826 H         1 UNK         0.0850 
    117 H117       27.3100   -0.6999  -13.1834 H         1 UNK         0.0810 
    118 H118       26.0738    0.0482  -12.1854 H         1 UNK         0.0810 
    119 H119       27.1777   -1.1348  -11.4855 H         1 UNK         0.0810 
    120 H120       29.3409   -0.5233  -10.0783 H         1 UNK         0.3040 
    121 H121       31.6389   -1.3434  -11.5872 H         1 UNK         0.0766 
    122 H122       32.3542   -2.2812   -9.3859 H         1 UNK         0.0812 
    123 H123       30.6713   -2.6660   -9.7104 H         1 UNK         0.0812 
    124 H124       31.0779   -1.3861   -8.5723 H         1 UNK         0.0812 
    125 H125       30.9582    1.5681   -9.8999 H         1 UNK         0.3205 
    126 H126       32.0048    3.4550   -9.4748 H         1 UNK         0.0754 
    127 H127       34.0533    4.1365  -10.6487 H         1 UNK         0.0769 
    128 H128       32.9882    3.3134  -11.7767 H         1 UNK         0.0769 
    129 H129       34.3982    2.4812  -11.1220 H         1 UNK         0.0769 
    130 H130       31.9165    1.5887   -7.5629 H         1 UNK         0.2981 
    131 H131       34.5277    1.5329   -6.1486 H         1 UNK         0.0541 
    132 H132       31.7730    3.6176   -6.2368 H         1 UNK         0.3459 
    133 H133       32.0258    4.3178   -4.6566 H         1 UNK         0.3459 
    134 H134       31.9228    0.1002   -5.4412 H         1 UNK         0.0612 
    135 H135       33.4411   -0.0490   -4.5897 H         1 UNK         0.0612 
    136 H136       33.9570   -3.4756   -6.0862 H         1 UNK         0.0624 
    137 H137       34.0460   -2.4342   -4.6910 H         1 UNK         0.0624 
@<TRIPOS>BOND
     1    1    2 1    
     2    1   72 1    
     3    1   73 1    
     4    1   74 1    
     5    2    3 2    
     6    2    4 am   BACKBONE|DICT|INTERRES
     7    4    5 1    
     8    4   75 1    
     9    5    6 1    
    10    5   35 1    
    11    5   76 1    
    12    6    7 1    
    13    6   77 1    
    14    6   78 1    
    15    7    8 1    
    16    8    9 1    
    17    8   79 1    
    18    8   80 1    
    19    9   10 ar   
    20    9   14 ar   
    21   10   11 ar   
    22   10   81 1    
    23   11   12 ar   
    24   11   71 1    
    25   12   13 ar   
    26   12   82 1    
    27   13   14 ar   
    28   13   15 1    
    29   14   83 1    
    30   15   16 1    
    31   15   84 1    
    32   15   85 1    
    33   16   17 1    
    34   17   18 1    
    35   17   86 1    
    36   17   87 1    
    37   18   19 1    
    38   18   37 1    
    39   18   88 1    
    40   19   20 am   BACKBONE|DICT|INTERRES
    41   19   89 1    
    42   20   21 2    
    43   20   22 1    
    44   22   23 1    
    45   22   24 1    
    46   22   90 1    
    47   23   91 1    
    48   23   92 1    
    49   23   93 1    
    50   24   25 am   BACKBONE|DICT|INTERRES
    51   24   94 1    
    52   25   26 2    
    53   25   27 1    
    54   27   28 1    
    55   27   29 1    
    56   27   95 1    
    57   28   96 1    
    58   28   97 1    
    59   28   98 1    
    60   29   30 am   BACKBONE|DICT|INTERRES
    61   29   99 1    
    62   30   31 2    
    63   30   32 1    
    64   32   33 1    
    65   32   34 1    
    66   32  100 1    
    67   33  101 1    
    68   33  102 1    
    69   33  103 1    
    70   34   35 am   BACKBONE|DICT|INTERRES
    71   34  104 1    
    72   35   36 2    
    73   37   38 2    
    74   37   39 am   BACKBONE|DICT|INTERRES
    75   39   40 1    
    76   39  105 1    
    77   40   41 1    
    78   40   42 1    
    79   40  106 1    
    80   41  107 1    
    81   41  108 1    
    82   41  109 1    
    83   42   43 2    
    84   42   44 am   BACKBONE|DICT|INTERRES
    85   44   45 1    
    86   44  110 1    
    87   45   46 1    
    88   45   47 1    
    89   45  111 1    
    90   46  112 1    
    91   46  113 1    
    92   46  114 1    
    93   47   48 2    
    94   47   49 am   BACKBONE|DICT|INTERRES
    95   49   50 1    
    96   49  115 1    
    97   50   51 1    
    98   50   52 1    
    99   50  116 1    
   100   51  117 1    
   101   51  118 1    
   102   51  119 1    
   103   52   53 2    
   104   52   54 am   BACKBONE|DICT|INTERRES
   105   54   55 1    
   106   54  120 1    
   107   55   56 1    
   108   55   57 1    
   109   55  121 1    
   110   56  122 1    
   111   56  123 1    
   112   56  124 1    
   113   57   58 2    
   114   57   59 am   BACKBONE|DICT|INTERRES
   115   59   60 1    
   116   59  125 1    
   117   60   61 1    
   118   60   62 1    
   119   60  126 1    
   120   61  127 1    
   121   61  128 1    
   122   61  129 1    
   123   62   63 2    
   124   62   64 am   BACKBONE|DICT|INTERRES
   125   64   65 1    
   126   64  130 1    
   127   65   66 1    
   128   65   69 1    
   129   65  131 1    
   130   66   67 am   BACKBONE|DICT|INTERRES
   131   66   68 2    
   132   67  132 1    
   133   67  133 1    
   134   69   70 1    
   135   69  134 1    
   136   69  135 1    
   137   70   71 1    
   138   71  136 1    
   139   71  137 1    
@<TRIPOS>SUBSTRUCTURE
     1 UNK         1 GROUP             0       ****    0 ROOT    
