@<TRIPOS>MOLECULE
3R137
137   139    1
SMALL
USER_CHARGES


@<TRIPOS>ATOM
      1 CA         23.5489   -5.3275   -2.0626 C.3       0 UNK        -0.2020 
      2 C          24.8638   -4.5922   -2.2708 C.2       0 UNK         0.4855 
      3 O          25.1075   -4.0788   -3.3619 O.2       0 UNK        -0.5197 
      4 N          25.7031   -4.5260   -1.2277 N.am      1 UNK        -0.4892 
      5 CA         27.0295   -3.8922   -1.2155 C.3       1 UNK         0.0835 
      6 C6         28.0683   -4.6821   -2.0594 C.3       12 UNK        -0.0855 
      7 S7         29.7310   -4.6204   -1.3174 S.3       12 UNK        -0.2931 
      8 C8         30.7969   -4.6769   -2.7959 C.3       12 UNK         0.0378 
      9 C9         30.9303   -3.3374   -3.5145 C.ar      12 UNK        -0.0802 
     10 C10        30.8414   -3.2831   -4.9090 C.ar      12 UNK        -0.0944 
     11 C11        31.0652   -2.0823   -5.5936 C.ar      12 UNK        -0.0787 
     12 C12        31.3611   -0.9282   -4.8628 C.ar      12 UNK        -0.0862 
     13 C13        31.3987   -0.9510   -3.4658 C.ar      12 UNK        -0.0733 
     14 C14        31.2019   -2.1647   -2.8011 C.ar      12 UNK        -0.0832 
     15 C15        31.6669    0.3193   -2.6605 C.3       12 UNK         0.0240 
     16 S16        30.7210    1.7839   -3.2174 S.3       12 UNK        -0.2522 
     17 C17        29.0032    1.1655   -3.2694 C.3       12 UNK        -0.0967 
     18 CA         28.5129    0.9919   -4.7319 C.3       5 UNK         0.0660 
     19 N          27.7042   -0.2162   -4.9169 N.am      5 UNK        -0.4015 
     20 C          27.3705   -0.7136   -6.1163 C.2       4 UNK         0.4946 
     21 O          27.7411   -0.2248   -7.1840 O.2       4 UNK        -0.5353 
     22 CA         26.4342   -1.9307   -6.1401 C.3       4 UNK         0.0277 
     23 CB         27.2336   -3.2255   -5.9387 C.3       4 UNK        -0.1981 
     24 N          25.3664   -1.8304   -5.1416 N.am      4 UNK        -0.4209 
     25 C          24.4132   -0.8860   -5.1592 C.2       3 UNK         0.4942 
     26 O          24.2957   -0.0515   -6.0547 O.2       3 UNK        -0.5208 
     27 CA         23.4769   -0.8066   -3.9447 C.3       3 UNK         0.0250 
     28 CB         22.3931   -1.8949   -4.0008 C.3       3 UNK        -0.1990 
     29 N          24.2138   -0.8796   -2.6815 N.am      3 UNK        -0.4232 
     30 C          25.0813    0.0535   -2.2602 C.2       2 UNK         0.4993 
     31 O          25.3141    1.0969   -2.8692 O.2       2 UNK        -0.5286 
     32 CA         25.8486   -0.2381   -0.9602 C.3       2 UNK         0.0209 
     33 CB         25.0778    0.3024    0.2545 C.3       2 UNK        -0.1931 
     34 N          26.1362   -1.6623   -0.7658 N.am      2 UNK        -0.4546 
     35 C          26.9400   -2.3873   -1.5579 C.2       1 UNK         0.5154 
     36 O          27.5198   -1.9181   -2.5394 O.2       1 UNK        -0.5181 
     37 C          27.8400    2.2652   -5.2909 C.2       5 UNK         0.5014 
     38 O          28.5391    3.1418   -5.7987 O.2       5 UNK        -0.5248 
     39 N          26.5046    2.3396   -5.2237 N.am      6 UNK        -0.4434 
     40 CA         25.7133    3.3940   -5.8541 C.3       6 UNK         0.0363 
     41 CB         24.3268    3.4631   -5.1927 C.3       6 UNK        -0.1936 
     42 C          25.5872    3.2017   -7.3762 C.2       6 UNK         0.5081 
     43 O          25.8078    4.1551   -8.1235 O.2       6 UNK        -0.5248 
     44 N          25.1940    1.9948   -7.8068 N.am      7 UNK        -0.4718 
     45 CA         24.8298    1.6961   -9.1938 C.3       7 UNK         0.0273 
     46 CB         23.9181    0.4581   -9.2297 C.3       7 UNK        -0.1935 
     47 C          26.0300    1.5025  -10.1322 C.2       7 UNK         0.5018 
     48 O          26.0376    2.0818  -11.2195 O.2       7 UNK        -0.5186 
     49 N          26.9930    0.6665   -9.7250 N.am      8 UNK        -0.4240 
     50 CA         28.1495    0.2795  -10.5360 C.3       8 UNK         0.0235 
     51 CB         28.4008   -1.2318  -10.3950 C.3       8 UNK        -0.2000 
     52 C          29.3996    1.0733  -10.1445 C.2       8 UNK         0.4941 
     53 O          30.1381    1.4992  -11.0335 O.2       8 UNK        -0.5273 
     54 N          29.6183    1.2534   -8.8330 N.am      9 UNK        -0.4262 
     55 CA         30.6912    2.0167   -8.1738 C.3       9 UNK         0.0264 
     56 CB         30.6080    3.5130   -8.5316 C.3       9 UNK        -0.1955 
     57 C          32.1221    1.4857   -8.3824 C.2       9 UNK         0.5031 
     58 O          32.8805    1.4173   -7.4151 O.2       9 UNK        -0.5390 
     59 N          32.4741    1.1029   -9.6139 N.am      10 UNK        -0.4204 
     60 CA         33.7881    0.6090  -10.0343 C.3       10 UNK         0.0237 
     61 CB         33.9321    0.8350  -11.5513 C.3       10 UNK        -0.1985 
     62 C          34.0444   -0.8569   -9.6242 C.2       10 UNK         0.4970 
     63 O          34.3735   -1.6852  -10.4753 O.2       10 UNK        -0.4914 
     64 N          33.9027   -1.1451   -8.3286 N.am      11 UNK        -0.4285 
     65 CA         34.1711   -2.4335   -7.6812 C.3       11 UNK         0.1007 
     66 C          34.3926   -2.2793   -6.1515 C.2       11 UNK         0.5703 
     67 N          34.4346   -3.3697   -5.3977 N.am      11 UNK        -0.7361 
     68 O          34.5802   -1.1755   -5.6430 O.2       11 UNK        -0.4986 
     69 C69        33.2372   -3.6032   -8.1315 C.3       12 UNK        -0.0947 
     70 S70        31.4077   -3.4789   -8.0443 S.3       12 UNK        -0.2240 
     71 C71        30.9493   -1.9794   -7.1117 C.3       12 UNK         0.0194 
     72 H72        23.5026   -5.8145   -1.0887 H         1 UNK         0.0906 
     73 H73        22.7129   -4.6328   -2.1357 H         1 UNK         0.0906 
     74 H74        23.4237   -6.0923   -2.8286 H         1 UNK         0.0906 
     75 H75        25.4293   -4.9602   -0.3562 H         1 UNK         0.3140 
     76 H76        27.3473   -3.9361   -0.1721 H         1 UNK         0.1085 
     77 H77        28.0937   -4.3471   -3.0958 H         1 UNK         0.0836 
     78 H78        27.7911   -5.7364   -2.1051 H         1 UNK         0.0836 
     79 H79        30.4248   -5.4488   -3.4716 H         1 UNK         0.0731 
     80 H80        31.7938   -4.9959   -2.4891 H         1 UNK         0.0731 
     81 H81        30.6148   -4.1838   -5.4615 H         1 UNK         0.1312 
     82 H82        31.5465    0.0019   -5.3821 H         1 UNK         0.1406 
     83 H83        31.2641   -2.2011   -1.7222 H         1 UNK         0.1631 
     84 H84        32.7316    0.5488   -2.7174 H         1 UNK         0.0717 
     85 H85        31.4428    0.1551   -1.6053 H         1 UNK         0.0717 
     86 H86        28.9717    0.2171   -2.7330 H         1 UNK         0.0934 
     87 H87        28.3565    1.8378   -2.7019 H         1 UNK         0.0934 
     88 H88        29.3839    0.8328   -5.3659 H         1 UNK         0.0739 
     89 H89        27.4317   -0.7257   -4.0803 H         1 UNK         0.3093 
     90 H90        25.9634   -1.9706   -7.1246 H         1 UNK         0.0818 
     91 H91        27.7921   -3.2047   -5.0039 H         1 UNK         0.0819 
     92 H92        26.5837   -4.1005   -5.9246 H         1 UNK         0.0819 
     93 H93        27.9562   -3.3663   -6.7435 H         1 UNK         0.0819 
     94 H94        25.3744   -2.5152   -4.3876 H         1 UNK         0.3041 
     95 H95        22.9772    0.1642   -3.9776 H         1 UNK         0.0784 
     96 H96        21.7923   -1.7930   -4.9056 H         1 UNK         0.0793 
     97 H97        22.8185   -2.8978   -4.0096 H         1 UNK         0.0793 
     98 H98        21.7128   -1.8239   -3.1521 H         1 UNK         0.0793 
     99 H99        24.1095   -1.7210   -2.1348 H         1 UNK         0.3024 
    100 H100       26.8028    0.2900   -1.0235 H         1 UNK         0.1171 
    101 H101       25.6514    0.1833    1.1739 H         1 UNK         0.0786 
    102 H102       24.8698    1.3675    0.1409 H         1 UNK         0.0786 
    103 H103       24.1208   -0.2041    0.3862 H         1 UNK         0.0786 
    104 H104       25.6743   -2.1215    0.0063 H         1 UNK         0.2977 
    105 H105       25.9971    1.6257   -4.7101 H         1 UNK         0.3127 
    106 H106       26.2110    4.3506   -5.6797 H         1 UNK         0.0770 
    107 H107       23.7755    2.5288   -5.3034 H         1 UNK         0.0814 
    108 H108       23.7217    4.2546   -5.6366 H         1 UNK         0.0814 
    109 H109       24.4085    3.6750   -4.1264 H         1 UNK         0.0814 
    110 H110       25.0025    1.2658   -7.1209 H         1 UNK         0.2983 
    111 H111       24.2512    2.5392   -9.5786 H         1 UNK         0.0947 
    112 H112       23.6074    0.2292  -10.2500 H         1 UNK         0.0806 
    113 H113       23.0130    0.6165   -8.6429 H         1 UNK         0.0806 
    114 H114       24.4197   -0.4260   -8.8342 H         1 UNK         0.0806 
    115 H115       26.9610    0.2941   -8.7786 H         1 UNK         0.3000 
    116 H116       27.9494    0.4814  -11.5907 H         1 UNK         0.0850 
    117 H117       29.2616   -1.5418  -10.9891 H         1 UNK         0.0810 
    118 H118       27.5432   -1.8074  -10.7432 H         1 UNK         0.0810 
    119 H119       28.5978   -1.5218   -9.3632 H         1 UNK         0.0810 
    120 H120       28.9574    0.8090   -8.1985 H         1 UNK         0.3040 
    121 H121       30.4951    1.9295   -7.1059 H         1 UNK         0.0766 
    122 H122       29.6230    3.9185   -8.2992 H         1 UNK         0.0812 
    123 H123       30.8051    3.6944   -9.5884 H         1 UNK         0.0812 
    124 H124       31.3371    4.0896   -7.9608 H         1 UNK         0.0812 
    125 H125       31.7579    1.1869  -10.3349 H         1 UNK         0.3205 
    126 H126       34.5527    1.2111   -9.5387 H         1 UNK         0.0754 
    127 H127       34.9191    0.5310  -11.9030 H         1 UNK         0.0769 
    128 H128       33.8099    1.8873  -11.8085 H         1 UNK         0.0769 
    129 H129       33.1923    0.2647  -12.1148 H         1 UNK         0.0769 
    130 H130       33.6682   -0.3883   -7.6905 H         1 UNK         0.2981 
    131 H131       35.1693   -2.7073   -8.0277 H         1 UNK         0.0541 
    132 H132       34.5844   -3.2678   -4.4069 H         1 UNK         0.3459 
    133 H133       34.2901   -4.2845   -5.7926 H         1 UNK         0.3459 
    134 H134       33.5151   -4.5221   -7.6148 H         1 UNK         0.0612 
    135 H135       33.4568   -3.8219   -9.1769 H         1 UNK         0.0612 
    136 H136       29.9048   -1.7741   -7.3378 H         1 UNK         0.0624 
    137 H137       31.4972   -1.1229   -7.4902 H         1 UNK         0.0624 
@<TRIPOS>BOND
     1    1    2 1    
     2    1   72 1    
     3    1   73 1    
     4    1   74 1    
     5    2    3 2    
     6    2    4 am   BACKBONE|DICT|INTERRES
     7    4    5 1    
     8    4   75 1    
     9    5    6 1    
    10    5   35 1    
    11    5   76 1    
    12    6    7 1    
    13    6   77 1    
    14    6   78 1    
    15    7    8 1    
    16    8    9 1    
    17    8   79 1    
    18    8   80 1    
    19    9   10 ar   
    20    9   14 ar   
    21   10   11 ar   
    22   10   81 1    
    23   11   12 ar   
    24   11   71 1    
    25   12   13 ar   
    26   12   82 1    
    27   13   14 ar   
    28   13   15 1    
    29   14   83 1    
    30   15   16 1    
    31   15   84 1    
    32   15   85 1    
    33   16   17 1    
    34   17   18 1    
    35   17   86 1    
    36   17   87 1    
    37   18   19 1    
    38   18   37 1    
    39   18   88 1    
    40   19   20 am   BACKBONE|DICT|INTERRES
    41   19   89 1    
    42   20   21 2    
    43   20   22 1    
    44   22   23 1    
    45   22   24 1    
    46   22   90 1    
    47   23   91 1    
    48   23   92 1    
    49   23   93 1    
    50   24   25 am   BACKBONE|DICT|INTERRES
    51   24   94 1    
    52   25   26 2    
    53   25   27 1    
    54   27   28 1    
    55   27   29 1    
    56   27   95 1    
    57   28   96 1    
    58   28   97 1    
    59   28   98 1    
    60   29   30 am   BACKBONE|DICT|INTERRES
    61   29   99 1    
    62   30   31 2    
    63   30   32 1    
    64   32   33 1    
    65   32   34 1    
    66   32  100 1    
    67   33  101 1    
    68   33  102 1    
    69   33  103 1    
    70   34   35 am   BACKBONE|DICT|INTERRES
    71   34  104 1    
    72   35   36 2    
    73   37   38 2    
    74   37   39 am   BACKBONE|DICT|INTERRES
    75   39   40 1    
    76   39  105 1    
    77   40   41 1    
    78   40   42 1    
    79   40  106 1    
    80   41  107 1    
    81   41  108 1    
    82   41  109 1    
    83   42   43 2    
    84   42   44 am   BACKBONE|DICT|INTERRES
    85   44   45 1    
    86   44  110 1    
    87   45   46 1    
    88   45   47 1    
    89   45  111 1    
    90   46  112 1    
    91   46  113 1    
    92   46  114 1    
    93   47   48 2    
    94   47   49 am   BACKBONE|DICT|INTERRES
    95   49   50 1    
    96   49  115 1    
    97   50   51 1    
    98   50   52 1    
    99   50  116 1    
   100   51  117 1    
   101   51  118 1    
   102   51  119 1    
   103   52   53 2    
   104   52   54 am   BACKBONE|DICT|INTERRES
   105   54   55 1    
   106   54  120 1    
   107   55   56 1    
   108   55   57 1    
   109   55  121 1    
   110   56  122 1    
   111   56  123 1    
   112   56  124 1    
   113   57   58 2    
   114   57   59 am   BACKBONE|DICT|INTERRES
   115   59   60 1    
   116   59  125 1    
   117   60   61 1    
   118   60   62 1    
   119   60  126 1    
   120   61  127 1    
   121   61  128 1    
   122   61  129 1    
   123   62   63 2    
   124   62   64 am   BACKBONE|DICT|INTERRES
   125   64   65 1    
   126   64  130 1    
   127   65   66 1    
   128   65   69 1    
   129   65  131 1    
   130   66   67 am   BACKBONE|DICT|INTERRES
   131   66   68 2    
   132   67  132 1    
   133   67  133 1    
   134   69   70 1    
   135   69  134 1    
   136   69  135 1    
   137   70   71 1    
   138   71  136 1    
   139   71  137 1    
@<TRIPOS>SUBSTRUCTURE
     1 UNK         1 GROUP             0       ****    0 ROOT    
