@<TRIPOS>MOLECULE
3R137
137   139    1
SMALL
USER_CHARGES


@<TRIPOS>ATOM
      1 CA         30.0172    1.6778   -3.0952 C.3       0 UNK        -0.2020 
      2 C          29.4385    0.2744   -3.0024 C.2       0 UNK         0.4855 
      3 O          29.0299   -0.2833   -4.0184 O.2       0 UNK        -0.5197 
      4 N          29.4065   -0.2960   -1.7920 N.am      1 UNK        -0.4892 
      5 CA         28.7939   -1.5940   -1.4999 C.3       1 UNK         0.0835 
      6 C6         29.4742   -2.2558   -0.2733 C.3       12 UNK        -0.0855 
      7 S7         29.1349   -4.0454   -0.1377 S.3       12 UNK        -0.2931 
      8 C8         30.6101   -4.7720   -0.9264 C.3       12 UNK         0.0378 
      9 C9         30.6664   -4.4383   -2.4093 C.ar      12 UNK        -0.0802 
     10 C10        31.6014   -3.5177   -2.8954 C.ar      12 UNK        -0.0944 
     11 C11        31.6096   -3.1669   -4.2487 C.ar      12 UNK        -0.0787 
     12 C12        30.6850   -3.7520   -5.1168 C.ar      12 UNK        -0.0862 
     13 C13        29.7412   -4.6666   -4.6407 C.ar      12 UNK        -0.0733 
     14 C14        29.7485   -5.0204   -3.2892 C.ar      12 UNK        -0.0832 
     15 C15        28.6824   -5.2325   -5.5773 C.3       12 UNK         0.0240 
     16 S16        27.0371   -4.5179   -5.2446 S.3       12 UNK        -0.2522 
     17 C17        27.3426   -2.7346   -5.4850 C.3       12 UNK        -0.0967 
     18 CA         26.4546   -2.0965   -6.5749 C.3       5 UNK         0.0660 
     19 N          25.0261   -2.2212   -6.2779 N.am      5 UNK        -0.4015 
     20 C          24.0389   -2.0909   -7.1739 C.2       4 UNK         0.4946 
     21 O          24.2256   -1.8792   -8.3725 O.2       4 UNK        -0.5353 
     22 CA         22.5974   -2.2145   -6.6462 C.3       4 UNK         0.0277 
     23 CB         22.1339   -3.6796   -6.6933 C.3       4 UNK        -0.1981 
     24 N          22.4442   -1.7000   -5.2824 N.am      4 UNK        -0.4209 
     25 C          22.4510   -0.3980   -4.9612 C.2       3 UNK         0.4942 
     26 O          22.4969    0.5109   -5.7902 O.2       3 UNK        -0.5208 
     27 CA         22.4405   -0.0482   -3.4595 C.3       3 UNK         0.0250 
     28 CB         20.9973    0.1095   -2.9545 C.3       3 UNK        -0.1990 
     29 N          23.1577   -1.0052   -2.6031 N.am      3 UNK        -0.4232 
     30 C          24.4501   -1.3327   -2.7421 C.2       2 UNK         0.4993 
     31 O          25.1593   -0.8993   -3.6509 O.2       2 UNK        -0.5286 
     32 CA         25.0206   -2.3628   -1.7508 C.3       2 UNK         0.0209 
     33 CB         24.5062   -3.7726   -2.0892 C.3       2 UNK        -0.1931 
     34 N          26.4865   -2.3891   -1.7672 N.am      2 UNK        -0.4546 
     35 C          27.2751   -1.4143   -1.2962 C.2       1 UNK         0.5154 
     36 O          26.8518   -0.4211   -0.6966 O.2       1 UNK        -0.5181 
     37 C          26.8573   -0.6239   -6.7686 C.2       5 UNK         0.5014 
     38 O          27.6829   -0.3377   -7.6349 O.2       5 UNK        -0.5248 
     39 N          26.2519    0.2797   -5.9822 N.am      6 UNK        -0.4434 
     40 CA         26.5111    1.7234   -5.9432 C.3       6 UNK         0.0363 
     41 CB         25.6433    2.3570   -4.8449 C.3       6 UNK        -0.1936 
     42 C          26.3301    2.4700   -7.2799 C.2       6 UNK         0.5081 
     43 O          26.8357    3.5839   -7.4155 O.2       6 UNK        -0.5248 
     44 N          25.6687    1.8422   -8.2624 N.am      7 UNK        -0.4718 
     45 CA         25.6408    2.2745   -9.6633 C.3       7 UNK         0.0273 
     46 CB         24.6585    1.3833  -10.4397 C.3       7 UNK        -0.1935 
     47 C          27.0304    2.2634  -10.3378 C.2       7 UNK         0.5018 
     48 O          27.2346    3.0057  -11.2989 O.2       7 UNK        -0.5186 
     49 N          27.9581    1.4488   -9.8171 N.am      8 UNK        -0.4240 
     50 CA         29.3616    1.3754  -10.2119 C.3       8 UNK         0.0235 
     51 CB         29.5858    0.1156  -11.0694 C.3       8 UNK        -0.2000 
     52 C          30.2324    1.4022   -8.9445 C.2       8 UNK         0.4941 
     53 O          31.0822    0.5284   -8.7580 O.2       8 UNK        -0.5273 
     54 N          30.0087    2.4170   -8.0924 N.am      9 UNK        -0.4262 
     55 CA         30.6381    2.6094   -6.7754 C.3       9 UNK         0.0264 
     56 CB         30.0848    3.8918   -6.1306 C.3       9 UNK        -0.1955 
     57 C          32.1797    2.6412   -6.7584 C.2       9 UNK         0.5031 
     58 O          32.7691    2.4240   -5.6992 O.2       9 UNK        -0.5390 
     59 N          32.8066    2.8858   -7.9181 N.am      10 UNK        -0.4204 
     60 CA         34.2504    2.7676   -8.1420 C.3       10 UNK         0.0237 
     61 CB         34.5870    3.3122   -9.5400 C.3       10 UNK        -0.1985 
     62 C          34.7913    1.3315   -7.9787 C.2       10 UNK         0.4970 
     63 O          35.9910    1.1753   -7.7484 O.2       10 UNK        -0.4914 
     64 N          33.9137    0.3219   -8.0868 N.am      11 UNK        -0.4285 
     65 CA         34.2039   -1.1049   -7.8755 C.3       11 UNK         0.1007 
     66 C          35.0683   -1.7727   -8.9889 C.2       11 UNK         0.5703 
     67 N          35.2315   -1.1564  -10.1541 N.am      11 UNK        -0.7361 
     68 O          35.5772   -2.8771   -8.8126 O.2       11 UNK        -0.4986 
     69 C69        34.7074   -1.3958   -6.4266 C.3       12 UNK        -0.0947 
     70 S70        33.9435   -2.8840   -5.7035 S.3       12 UNK        -0.2240 
     71 C71        32.5786   -2.1210   -4.7756 C.3       12 UNK         0.0194 
     72 H72        29.3029    2.3443   -3.5776 H         1 UNK         0.0906 
     73 H73        30.2537    2.0888   -2.1140 H         1 UNK         0.0906 
     74 H74        30.9315    1.6666   -3.6876 H         1 UNK         0.0906 
     75 H75        29.7112    0.2321   -0.9867 H         1 UNK         0.3140 
     76 H76        28.9464   -2.2363   -2.3702 H         1 UNK         0.1085 
     77 H77        30.5556   -2.1202   -0.3284 H         1 UNK         0.0836 
     78 H78        29.1665   -1.7686    0.6542 H         1 UNK         0.0836 
     79 H79        31.5082   -4.4276   -0.4110 H         1 UNK         0.0731 
     80 H80        30.5822   -5.8554   -0.8016 H         1 UNK         0.0731 
     81 H81        32.3051   -3.0548   -2.2171 H         1 UNK         0.1312 
     82 H82        30.6828   -3.4672   -6.1603 H         1 UNK         0.1406 
     83 H83        29.0107   -5.7166   -2.9132 H         1 UNK         0.1631 
     84 H84        28.6313   -6.3155   -5.4570 H         1 UNK         0.0717 
     85 H85        28.9471   -5.0507   -6.6202 H         1 UNK         0.0717 
     86 H86        27.2023   -2.2358   -4.5260 H         1 UNK         0.0934 
     87 H87        28.3885   -2.5714   -5.7419 H         1 UNK         0.0934 
     88 H88        26.6512   -2.6147   -7.5162 H         1 UNK         0.0739 
     89 H89        24.7914   -2.3228   -5.3009 H         1 UNK         0.3093 
     90 H90        21.9525   -1.6319   -7.3081 H         1 UNK         0.0818 
     91 H91        21.0910   -3.7762   -6.3907 H         1 UNK         0.0819 
     92 H92        22.2140   -4.0805   -7.7048 H         1 UNK         0.0819 
     93 H93        22.7341   -4.3170   -6.0425 H         1 UNK         0.0819 
     94 H94        22.3767   -2.3781   -4.5376 H         1 UNK         0.3041 
     95 H95        22.9438    0.9153   -3.3539 H         1 UNK         0.0784 
     96 H96        20.4487    0.8327   -3.5599 H         1 UNK         0.0793 
     97 H97        20.4487   -0.8324   -2.9957 H         1 UNK         0.0793 
     98 H98        20.9730    0.4688   -1.9255 H         1 UNK         0.0793 
     99 H99        22.6298   -1.4134   -1.8446 H         1 UNK         0.3024 
    100 H100       24.6924   -2.0901   -0.7452 H         1 UNK         0.1171 
    101 H101       24.8962   -4.5138   -1.3912 H         1 UNK         0.0786 
    102 H102       23.4182   -3.8236   -2.0327 H         1 UNK         0.0786 
    103 H103       24.7954   -4.0785   -3.0956 H         1 UNK         0.0786 
    104 H104       26.9150   -3.1720   -2.2391 H         1 UNK         0.2977 
    105 H105       25.6618   -0.0829   -5.2354 H         1 UNK         0.3127 
    106 H106       27.5583    1.8403   -5.6581 H         1 UNK         0.0770 
    107 H107       24.5803    2.2463   -5.0614 H         1 UNK         0.0814 
    108 H108       25.8490    3.4239   -4.7488 H         1 UNK         0.0814 
    109 H109       25.8380    1.9010   -3.8736 H         1 UNK         0.0814 
    110 H110       25.2802    0.9315   -8.0601 H         1 UNK         0.2983 
    111 H111       25.2737    3.3028   -9.6902 H         1 UNK         0.0947 
    112 H112       24.5962    1.6882  -11.4854 H         1 UNK         0.0806 
    113 H113       23.6523    1.4456  -10.0246 H         1 UNK         0.0806 
    114 H114       24.9639    0.3360  -10.4218 H         1 UNK         0.0806 
    115 H115       27.7119    0.8699   -9.0136 H         1 UNK         0.3000 
    116 H116       29.6364    2.2510  -10.8038 H         1 UNK         0.0850 
    117 H117       28.9682    0.1332  -11.9674 H         1 UNK         0.0810 
    118 H118       29.3464   -0.7929  -10.5151 H         1 UNK         0.0810 
    119 H119       30.6252    0.0400  -11.3914 H         1 UNK         0.0810 
    120 H120       29.2781    3.0748   -8.3299 H         1 UNK         0.3040 
    121 H121       30.3376    1.7589   -6.1599 H         1 UNK         0.0766 
    122 H122       29.0128    3.8227   -5.9538 H         1 UNK         0.0812 
    123 H123       30.2672    4.7674   -6.7546 H         1 UNK         0.0812 
    124 H124       30.5523    4.0804   -5.1630 H         1 UNK         0.0812 
    125 H125       32.2346    3.0643   -8.7301 H         1 UNK         0.3205 
    126 H126       34.7541    3.3895   -7.3991 H         1 UNK         0.0754 
    127 H127       34.0913    2.7419  -10.3267 H         1 UNK         0.0769 
    128 H128       35.6604    3.2646   -9.7299 H         1 UNK         0.0769 
    129 H129       34.2892    4.3560   -9.6420 H         1 UNK         0.0769 
    130 H130       32.9433    0.5306   -8.3093 H         1 UNK         0.2981 
    131 H131       33.2248   -1.5719   -7.9882 H         1 UNK         0.0541 
    132 H132       34.8103   -0.2566  -10.3183 H         1 UNK         0.3459 
    133 H133       35.7832   -1.5972  -10.8730 H         1 UNK         0.3459 
    134 H134       34.4883   -0.5574   -5.7630 H         1 UNK         0.0612 
    135 H135       35.7931   -1.5039   -6.3977 H         1 UNK         0.0612 
    136 H136       32.0411   -1.4263   -5.4239 H         1 UNK         0.0624 
    137 H137       32.9866   -1.5261   -3.9569 H         1 UNK         0.0624 
@<TRIPOS>BOND
     1    1    2 1    
     2    1   72 1    
     3    1   73 1    
     4    1   74 1    
     5    2    3 2    
     6    2    4 am   BACKBONE|DICT|INTERRES
     7    4    5 1    
     8    4   75 1    
     9    5    6 1    
    10    5   35 1    
    11    5   76 1    
    12    6    7 1    
    13    6   77 1    
    14    6   78 1    
    15    7    8 1    
    16    8    9 1    
    17    8   79 1    
    18    8   80 1    
    19    9   10 ar   
    20    9   14 ar   
    21   10   11 ar   
    22   10   81 1    
    23   11   12 ar   
    24   11   71 1    
    25   12   13 ar   
    26   12   82 1    
    27   13   14 ar   
    28   13   15 1    
    29   14   83 1    
    30   15   16 1    
    31   15   84 1    
    32   15   85 1    
    33   16   17 1    
    34   17   18 1    
    35   17   86 1    
    36   17   87 1    
    37   18   19 1    
    38   18   37 1    
    39   18   88 1    
    40   19   20 am   BACKBONE|DICT|INTERRES
    41   19   89 1    
    42   20   21 2    
    43   20   22 1    
    44   22   23 1    
    45   22   24 1    
    46   22   90 1    
    47   23   91 1    
    48   23   92 1    
    49   23   93 1    
    50   24   25 am   BACKBONE|DICT|INTERRES
    51   24   94 1    
    52   25   26 2    
    53   25   27 1    
    54   27   28 1    
    55   27   29 1    
    56   27   95 1    
    57   28   96 1    
    58   28   97 1    
    59   28   98 1    
    60   29   30 am   BACKBONE|DICT|INTERRES
    61   29   99 1    
    62   30   31 2    
    63   30   32 1    
    64   32   33 1    
    65   32   34 1    
    66   32  100 1    
    67   33  101 1    
    68   33  102 1    
    69   33  103 1    
    70   34   35 am   BACKBONE|DICT|INTERRES
    71   34  104 1    
    72   35   36 2    
    73   37   38 2    
    74   37   39 am   BACKBONE|DICT|INTERRES
    75   39   40 1    
    76   39  105 1    
    77   40   41 1    
    78   40   42 1    
    79   40  106 1    
    80   41  107 1    
    81   41  108 1    
    82   41  109 1    
    83   42   43 2    
    84   42   44 am   BACKBONE|DICT|INTERRES
    85   44   45 1    
    86   44  110 1    
    87   45   46 1    
    88   45   47 1    
    89   45  111 1    
    90   46  112 1    
    91   46  113 1    
    92   46  114 1    
    93   47   48 2    
    94   47   49 am   BACKBONE|DICT|INTERRES
    95   49   50 1    
    96   49  115 1    
    97   50   51 1    
    98   50   52 1    
    99   50  116 1    
   100   51  117 1    
   101   51  118 1    
   102   51  119 1    
   103   52   53 2    
   104   52   54 am   BACKBONE|DICT|INTERRES
   105   54   55 1    
   106   54  120 1    
   107   55   56 1    
   108   55   57 1    
   109   55  121 1    
   110   56  122 1    
   111   56  123 1    
   112   56  124 1    
   113   57   58 2    
   114   57   59 am   BACKBONE|DICT|INTERRES
   115   59   60 1    
   116   59  125 1    
   117   60   61 1    
   118   60   62 1    
   119   60  126 1    
   120   61  127 1    
   121   61  128 1    
   122   61  129 1    
   123   62   63 2    
   124   62   64 am   BACKBONE|DICT|INTERRES
   125   64   65 1    
   126   64  130 1    
   127   65   66 1    
   128   65   69 1    
   129   65  131 1    
   130   66   67 am   BACKBONE|DICT|INTERRES
   131   66   68 2    
   132   67  132 1    
   133   67  133 1    
   134   69   70 1    
   135   69  134 1    
   136   69  135 1    
   137   70   71 1    
   138   71  136 1    
   139   71  137 1    
@<TRIPOS>SUBSTRUCTURE
     1 UNK         1 GROUP             0       ****    0 ROOT    
