@<TRIPOS>MOLECULE
3R137
137   139    1
SMALL
USER_CHARGES


@<TRIPOS>ATOM
      1 CA         23.3693   -2.8962   -0.3177 C.3       0 UNK        -0.2020 
      2 C          24.3071   -1.8081   -0.8164 C.2       0 UNK         0.4855 
      3 O          23.8815   -0.6633   -0.9757 O.2       0 UNK        -0.5197 
      4 N          25.5762   -2.1585   -1.0714 N.am      1 UNK        -0.4892 
      5 CA         26.6359   -1.2807   -1.5871 C.3       1 UNK         0.0835 
      6 C6         27.9451   -2.0583   -1.8541 C.3       12 UNK        -0.0855 
      7 S7         28.5929   -2.9538   -0.4048 S.3       12 UNK        -0.2931 
      8 C8         30.3793   -2.5778   -0.5191 C.3       12 UNK         0.0378 
      9 C9         31.0499   -2.9098   -1.8572 C.ar      12 UNK        -0.0802 
     10 C10        32.2464   -2.2608   -2.1783 C.ar      12 UNK        -0.0944 
     11 C11        32.9130   -2.5290   -3.3777 C.ar      12 UNK        -0.0787 
     12 C12        32.3611   -3.4468   -4.2760 C.ar      12 UNK        -0.0862 
     13 C13        31.1576   -4.0927   -3.9819 C.ar      12 UNK        -0.0733 
     14 C14        30.5220   -3.8415   -2.7627 C.ar      12 UNK        -0.0832 
     15 C15        30.5510   -5.0652   -4.9832 C.3       12 UNK         0.0240 
     16 S16        29.7342   -4.1907   -6.3579 S.3       12 UNK        -0.2522 
     17 C17        28.2364   -3.5150   -5.5560 C.3       12 UNK        -0.0967 
     18 CA         27.0188   -3.3954   -6.5160 C.3       5 UNK         0.0660 
     19 N          25.7832   -3.2707   -5.7463 N.am      5 UNK        -0.4015 
     20 C          24.6305   -3.8941   -6.0054 C.2       4 UNK         0.4946 
     21 O          24.4678   -4.6681   -6.9502 O.2       4 UNK        -0.5353 
     22 CA         23.4644   -3.6415   -5.0381 C.3       4 UNK         0.0277 
     23 CB         23.6456   -4.4684   -3.7530 C.3       4 UNK        -0.1981 
     24 N          23.2979   -2.2260   -4.6825 N.am      4 UNK        -0.4209 
     25 C          22.1269   -1.5707   -4.7363 C.2       3 UNK         0.4942 
     26 O          21.0933   -2.0702   -5.1846 O.2       3 UNK        -0.5208 
     27 CA         22.0493   -0.1362   -4.1744 C.3       3 UNK         0.0250 
     28 CB         21.1009   -0.0841   -2.9635 C.3       3 UNK        -0.1990 
     29 N          23.3481    0.4080   -3.7756 N.am      3 UNK        -0.4232 
     30 C          24.1657    1.0899   -4.5909 C.2       2 UNK         0.4993 
     31 O          23.8729    1.3902   -5.7481 O.2       2 UNK        -0.5286 
     32 CA         25.5490    1.5012   -4.0415 C.3       2 UNK         0.0209 
     33 CB         25.5636    2.9936   -3.6693 C.3       2 UNK        -0.1931 
     34 N          26.0169    0.7198   -2.8899 N.am      2 UNK        -0.4546 
     35 C          26.1938   -0.6066   -2.8971 C.2       1 UNK         0.5154 
     36 O          25.9730   -1.3155   -3.8794 O.2       1 UNK        -0.5181 
     37 C          27.1539   -2.1843   -7.4605 C.2       5 UNK         0.5014 
     38 O          26.4694   -1.1717   -7.2921 O.2       5 UNK        -0.5248 
     39 N          28.1006   -2.2845   -8.4026 N.am      6 UNK        -0.4434 
     40 CA         28.5460   -1.1972   -9.2814 C.3       6 UNK         0.0363 
     41 CB         29.4233   -1.7870  -10.3970 C.3       6 UNK        -0.1936 
     42 C          29.2994   -0.0706   -8.5440 C.2       6 UNK         0.5081 
     43 O          29.5599    0.9691   -9.1504 O.2       6 UNK        -0.5248 
     44 N          29.6126   -0.2802   -7.2547 N.am      7 UNK        -0.4718 
     45 CA         30.3149    0.6086   -6.3189 C.3       7 UNK         0.0273 
     46 CB         30.3028   -0.0478   -4.9279 C.3       7 UNK        -0.1935 
     47 C          29.7914    2.0565   -6.2285 C.2       7 UNK         0.5018 
     48 O          30.5322    2.9269   -5.7716 O.2       7 UNK        -0.5186 
     49 N          28.5549    2.3014   -6.6877 N.am      8 UNK        -0.4240 
     50 CA         27.9910    3.6350   -6.9201 C.3       8 UNK         0.0235 
     51 CB         26.5296    3.4930   -7.3760 C.3       8 UNK        -0.2000 
     52 C          28.7777    4.4526   -7.9644 C.2       8 UNK         0.4941 
     53 O          28.8544    5.6751   -7.8354 O.2       8 UNK        -0.5273 
     54 N          29.3384    3.7659   -8.9691 N.am      9 UNK        -0.4262 
     55 CA         30.1977    4.3296  -10.0065 C.3       9 UNK         0.0264 
     56 CB         29.7224    3.8464  -11.3883 C.3       9 UNK        -0.1955 
     57 C          31.6565    3.9297   -9.7492 C.2       9 UNK         0.5031 
     58 O          32.5043    4.8118   -9.6058 O.2       9 UNK        -0.5390 
     59 N          31.9210    2.6185   -9.6787 N.am      10 UNK        -0.4204 
     60 CA         33.2324    2.0213   -9.4324 C.3       10 UNK         0.0237 
     61 CB         34.1784    2.2348  -10.6316 C.3       10 UNK        -0.1985 
     62 C          33.0349    0.5258   -9.1722 C.2       10 UNK         0.4970 
     63 O          32.2868   -0.1156   -9.9104 O.2       10 UNK        -0.4914 
     64 N          33.7060    0.0069   -8.1385 N.am      11 UNK        -0.4285 
     65 CA         33.6490   -1.3924   -7.6857 C.3       11 UNK         0.1007 
     66 C          33.9754   -2.4238   -8.8020 C.2       11 UNK         0.5703 
     67 N          33.2259   -3.5158   -8.8777 N.am      11 UNK        -0.7361 
     68 O          34.9292   -2.2628   -9.5614 O.2       11 UNK        -0.4986 
     69 C69        34.5904   -1.6082   -6.4745 C.3       12 UNK        -0.0947 
     70 S70        34.1063   -0.6183   -5.0191 S.3       12 UNK        -0.2240 
     71 C71        34.2399   -1.8437   -3.6782 C.3       12 UNK         0.0194 
     72 H72        22.4954   -2.9623   -0.9652 H         1 UNK         0.0906 
     73 H73        23.8510   -3.8736   -0.2978 H         1 UNK         0.0906 
     74 H74        23.0287   -2.6632    0.6907 H         1 UNK         0.0906 
     75 H75        25.8674   -3.1109   -0.9020 H         1 UNK         0.3140 
     76 H76        26.8291   -0.5129   -0.8353 H         1 UNK         0.1085 
     77 H77        27.7932   -2.7961   -2.6435 H         1 UNK         0.0836 
     78 H78        28.7129   -1.3741   -2.2219 H         1 UNK         0.0836 
     79 H79        30.5120   -1.5171   -0.2992 H         1 UNK         0.0731 
     80 H80        30.8971   -3.1225    0.2713 H         1 UNK         0.0731 
     81 H81        32.6686   -1.5487   -1.4820 H         1 UNK         0.1312 
     82 H82        32.8601   -3.6586   -5.2099 H         1 UNK         0.1406 
     83 H83        29.6086   -4.3695   -2.5300 H         1 UNK         0.1631 
     84 H84        29.8413   -5.7377   -4.4989 H         1 UNK         0.0717 
     85 H85        31.3388   -5.7002   -5.3912 H         1 UNK         0.0717 
     86 H86        27.9769   -4.1873   -4.7366 H         1 UNK         0.0934 
     87 H87        28.4741   -2.5586   -5.0864 H         1 UNK         0.0934 
     88 H88        26.9685   -4.2976   -7.1298 H         1 UNK         0.0739 
     89 H89        25.8165   -2.5712   -5.0044 H         1 UNK         0.3093 
     90 H90        22.5689   -4.0103   -5.5429 H         1 UNK         0.0818 
     91 H91        22.7695   -4.3927   -3.1092 H         1 UNK         0.0819 
     92 H92        23.7860   -5.5254   -3.9835 H         1 UNK         0.0819 
     93 H93        24.5136   -4.1403   -3.1801 H         1 UNK         0.0819 
     94 H94        24.1228   -1.7347   -4.3528 H         1 UNK         0.3041 
     95 H95        21.6196    0.4913   -4.9583 H         1 UNK         0.0784 
     96 H96        20.0955   -0.4056   -3.2387 H         1 UNK         0.0793 
     97 H97        21.4392   -0.7337   -2.1558 H         1 UNK         0.0793 
     98 H98        21.0176    0.9281   -2.5673 H         1 UNK         0.0793 
     99 H99        23.6555    0.1975   -2.8302 H         1 UNK         0.3024 
    100 H100       26.2630    1.3385   -4.8520 H         1 UNK         0.1171 
    101 H101       25.1997    3.6120   -4.4907 H         1 UNK         0.0786 
    102 H102       26.5726    3.3335   -3.4346 H         1 UNK         0.0786 
    103 H103       24.9285    3.1987   -2.8067 H         1 UNK         0.0786 
    104 H104       26.1739    1.2304   -2.0324 H         1 UNK         0.2977 
    105 H105       28.6352   -3.1421   -8.4463 H         1 UNK         0.3127 
    106 H106       27.6630   -0.7464   -9.7390 H         1 UNK         0.0770 
    107 H107       28.8839   -2.5360  -10.9766 H         1 UNK         0.0814 
    108 H108       30.3257   -2.2519   -9.9971 H         1 UNK         0.0814 
    109 H109       29.7443   -1.0100  -11.0925 H         1 UNK         0.0814 
    110 H110       29.3496   -1.1781   -6.8783 H         1 UNK         0.2983 
    111 H111       31.3503    0.6730   -6.6547 H         1 UNK         0.0947 
    112 H112       30.8721    0.5442   -4.2097 H         1 UNK         0.0806 
    113 H113       30.7563   -1.0388   -4.9505 H         1 UNK         0.0806 
    114 H114       29.2892   -0.1489   -4.5381 H         1 UNK         0.0806 
    115 H115       28.0272    1.5166   -7.0428 H         1 UNK         0.3000 
    116 H116       28.0149    4.1798   -5.9740 H         1 UNK         0.0850 
    117 H117       25.9337    2.9348   -6.6574 H         1 UNK         0.0810 
    118 H118       26.4539    2.9793   -8.3355 H         1 UNK         0.0810 
    119 H119       26.0613    4.4713   -7.4927 H         1 UNK         0.0810 
    120 H120       29.2559    2.7505   -8.9672 H         1 UNK         0.3040 
    121 H121       30.1424    5.4203   -9.9957 H         1 UNK         0.0766 
    122 H122       29.7130    2.7581  -11.4629 H         1 UNK         0.0812 
    123 H123       30.3727    4.2238  -12.1786 H         1 UNK         0.0812 
    124 H124       28.7141    4.2012  -11.6018 H         1 UNK         0.0812 
    125 H125       31.1587    1.9466   -9.7567 H         1 UNK         0.3205 
    126 H126       33.6617    2.4882   -8.5435 H         1 UNK         0.0754 
    127 H127       35.1332    1.7328  -10.4697 H         1 UNK         0.0769 
    128 H128       34.3959    3.2904  -10.7929 H         1 UNK         0.0769 
    129 H129       33.7522    1.8363  -11.5533 H         1 UNK         0.0769 
    130 H130       34.3165    0.6054   -7.6027 H         1 UNK         0.2981 
    131 H131       32.6231   -1.5717   -7.3568 H         1 UNK         0.0541 
    132 H132       32.4509   -3.6651   -8.2516 H         1 UNK         0.3459 
    133 H133       33.4363   -4.2020   -9.5853 H         1 UNK         0.3459 
    134 H134       35.6166   -1.3446   -6.7373 H         1 UNK         0.0612 
    135 H135       34.6194   -2.6631   -6.1999 H         1 UNK         0.0612 
    136 H136       34.6048   -1.3268   -2.7894 H         1 UNK         0.0624 
    137 H137       34.9984   -2.5904   -3.9165 H         1 UNK         0.0624 
@<TRIPOS>BOND
     1    1    2 1    
     2    1   72 1    
     3    1   73 1    
     4    1   74 1    
     5    2    3 2    
     6    2    4 am   BACKBONE|DICT|INTERRES
     7    4    5 1    
     8    4   75 1    
     9    5    6 1    
    10    5   35 1    
    11    5   76 1    
    12    6    7 1    
    13    6   77 1    
    14    6   78 1    
    15    7    8 1    
    16    8    9 1    
    17    8   79 1    
    18    8   80 1    
    19    9   10 ar   
    20    9   14 ar   
    21   10   11 ar   
    22   10   81 1    
    23   11   12 ar   
    24   11   71 1    
    25   12   13 ar   
    26   12   82 1    
    27   13   14 ar   
    28   13   15 1    
    29   14   83 1    
    30   15   16 1    
    31   15   84 1    
    32   15   85 1    
    33   16   17 1    
    34   17   18 1    
    35   17   86 1    
    36   17   87 1    
    37   18   19 1    
    38   18   37 1    
    39   18   88 1    
    40   19   20 am   BACKBONE|DICT|INTERRES
    41   19   89 1    
    42   20   21 2    
    43   20   22 1    
    44   22   23 1    
    45   22   24 1    
    46   22   90 1    
    47   23   91 1    
    48   23   92 1    
    49   23   93 1    
    50   24   25 am   BACKBONE|DICT|INTERRES
    51   24   94 1    
    52   25   26 2    
    53   25   27 1    
    54   27   28 1    
    55   27   29 1    
    56   27   95 1    
    57   28   96 1    
    58   28   97 1    
    59   28   98 1    
    60   29   30 am   BACKBONE|DICT|INTERRES
    61   29   99 1    
    62   30   31 2    
    63   30   32 1    
    64   32   33 1    
    65   32   34 1    
    66   32  100 1    
    67   33  101 1    
    68   33  102 1    
    69   33  103 1    
    70   34   35 am   BACKBONE|DICT|INTERRES
    71   34  104 1    
    72   35   36 2    
    73   37   38 2    
    74   37   39 am   BACKBONE|DICT|INTERRES
    75   39   40 1    
    76   39  105 1    
    77   40   41 1    
    78   40   42 1    
    79   40  106 1    
    80   41  107 1    
    81   41  108 1    
    82   41  109 1    
    83   42   43 2    
    84   42   44 am   BACKBONE|DICT|INTERRES
    85   44   45 1    
    86   44  110 1    
    87   45   46 1    
    88   45   47 1    
    89   45  111 1    
    90   46  112 1    
    91   46  113 1    
    92   46  114 1    
    93   47   48 2    
    94   47   49 am   BACKBONE|DICT|INTERRES
    95   49   50 1    
    96   49  115 1    
    97   50   51 1    
    98   50   52 1    
    99   50  116 1    
   100   51  117 1    
   101   51  118 1    
   102   51  119 1    
   103   52   53 2    
   104   52   54 am   BACKBONE|DICT|INTERRES
   105   54   55 1    
   106   54  120 1    
   107   55   56 1    
   108   55   57 1    
   109   55  121 1    
   110   56  122 1    
   111   56  123 1    
   112   56  124 1    
   113   57   58 2    
   114   57   59 am   BACKBONE|DICT|INTERRES
   115   59   60 1    
   116   59  125 1    
   117   60   61 1    
   118   60   62 1    
   119   60  126 1    
   120   61  127 1    
   121   61  128 1    
   122   61  129 1    
   123   62   63 2    
   124   62   64 am   BACKBONE|DICT|INTERRES
   125   64   65 1    
   126   64  130 1    
   127   65   66 1    
   128   65   69 1    
   129   65  131 1    
   130   66   67 am   BACKBONE|DICT|INTERRES
   131   66   68 2    
   132   67  132 1    
   133   67  133 1    
   134   69   70 1    
   135   69  134 1    
   136   69  135 1    
   137   70   71 1    
   138   71  136 1    
   139   71  137 1    
@<TRIPOS>SUBSTRUCTURE
     1 UNK         1 GROUP             0       ****    0 ROOT    
