@<TRIPOS>MOLECULE
3R137
137   139    1
SMALL
USER_CHARGES


@<TRIPOS>ATOM
      1 CA         27.3198   -6.5864   -3.5957 C.3       0 UNK        -0.2020 
      2 C          26.7566   -6.2543   -2.2230 C.2       0 UNK         0.4855 
      3 O          25.7447   -6.8289   -1.8213 O.2       0 UNK        -0.5197 
      4 N          27.4088   -5.3377   -1.4959 N.am      1 UNK        -0.4892 
      5 CA         27.0013   -4.8867   -0.1587 C.3       1 UNK         0.0835 
      6 C6         28.1737   -4.2157    0.6048 C.3       12 UNK        -0.0855 
      7 S7         28.8572   -2.7453   -0.2400 S.3       12 UNK        -0.2931 
      8 C8         30.4285   -3.3696   -0.9163 C.3       12 UNK         0.0378 
      9 C9         30.7319   -2.6825   -2.2376 C.ar      12 UNK        -0.0802 
     10 C10        31.2158   -1.3708   -2.2525 C.ar      12 UNK        -0.0944 
     11 C11        31.4311   -0.7074   -3.4635 C.ar      12 UNK        -0.0787 
     12 C12        31.1577   -1.3692   -4.6651 C.ar      12 UNK        -0.0862 
     13 C13        30.6880   -2.6869   -4.6657 C.ar      12 UNK        -0.0733 
     14 C14        30.4927   -3.3432   -3.4464 C.ar      12 UNK        -0.0832 
     15 C15        30.4025   -3.3887   -5.9908 C.3       12 UNK         0.0240 
     16 S16        28.7983   -4.2644   -6.0629 S.3       12 UNK        -0.2522 
     17 C17        27.5942   -3.0418   -5.4395 C.3       12 UNK        -0.0967 
     18 CA         27.0506   -2.0888   -6.5336 C.3       5 UNK         0.0660 
     19 N          25.7091   -1.5989   -6.2075 N.am      5 UNK        -0.4015 
     20 C          24.9113   -0.9334   -7.0579 C.2       4 UNK         0.4946 
     21 O          25.1968   -0.7144   -8.2346 O.2       4 UNK        -0.5353 
     22 CA         23.5884   -0.3785   -6.4976 C.3       4 UNK         0.0277 
     23 CB         22.4629   -1.4132   -6.6538 C.3       4 UNK        -0.1981 
     24 N          23.6808    0.0344   -5.0952 N.am      4 UNK        -0.4209 
     25 C          24.4986    0.9909   -4.6322 C.2       3 UNK         0.4942 
     26 O          25.1986    1.6969   -5.3567 O.2       3 UNK        -0.5208 
     27 CA         24.5994    1.1556   -3.1051 C.3       3 UNK         0.0250 
     28 CB         23.7066    2.3139   -2.6332 C.3       3 UNK        -0.1990 
     29 N          24.2790   -0.0537   -2.3339 N.am      3 UNK        -0.4232 
     30 C          24.9125   -1.2309   -2.4357 C.2       2 UNK         0.4993 
     31 O          25.8076   -1.4652   -3.2539 O.2       2 UNK        -0.5286 
     32 CA         24.4209   -2.3497   -1.5133 C.3       2 UNK         0.0209 
     33 CB         23.2209   -3.0842   -2.1370 C.3       2 UNK        -0.1931 
     34 N          25.5140   -3.2921   -1.3044 N.am      2 UNK        -0.4546 
     35 C          25.7411   -3.9912   -0.1855 C.2       1 UNK         0.5154 
     36 O          25.0041   -3.9549    0.8017 O.2       1 UNK        -0.5181 
     37 C          28.0078   -0.9085   -6.7734 C.2       5 UNK         0.5014 
     38 O          28.6968   -0.8762   -7.7939 O.2       5 UNK        -0.5248 
     39 N          27.9987    0.0580   -5.8432 N.am      6 UNK        -0.4434 
     40 CA         28.7871    1.2877   -5.9136 C.3       6 UNK         0.0363 
     41 CB         28.6386    2.0803   -4.6053 C.3       6 UNK        -0.1936 
     42 C          28.4241    2.1503   -7.1300 C.2       6 UNK         0.5081 
     43 O          29.3269    2.6285   -7.8131 O.2       6 UNK        -0.5248 
     44 N          27.1213    2.2919   -7.4078 N.am      7 UNK        -0.4718 
     45 CA         26.5957    2.9961   -8.5788 C.3       7 UNK         0.0273 
     46 CB         25.0663    3.1005   -8.4710 C.3       7 UNK        -0.1935 
     47 C          27.0029    2.3457   -9.9127 C.2       7 UNK         0.5018 
     48 O          27.3430    3.0671  -10.8511 O.2       7 UNK        -0.5186 
     49 N          26.9650    1.0070   -9.9751 N.am      8 UNK        -0.4240 
     50 CA         27.3309    0.2307  -11.1599 C.3       8 UNK         0.0235 
     51 CB         26.7703   -1.1963  -11.0398 C.3       8 UNK        -0.2000 
     52 C          28.8463    0.1960  -11.4115 C.2       8 UNK         0.4941 
     53 O          29.2766    0.4627  -12.5344 O.2       8 UNK        -0.5273 
     54 N          29.6243   -0.1626  -10.3815 N.am      9 UNK        -0.4262 
     55 CA         31.0601   -0.4323  -10.5015 C.3       9 UNK         0.0264 
     56 CB         31.4464   -1.5099   -9.4731 C.3       9 UNK        -0.1955 
     57 C          31.9518    0.8047  -10.3128 C.2       9 UNK         0.5031 
     58 O          33.1556    0.6999  -10.5553 O.2       9 UNK        -0.5390 
     59 N          31.3945    1.9146   -9.8001 N.am      10 UNK        -0.4204 
     60 CA         32.1049    3.1205   -9.3347 C.3       10 UNK         0.0237 
     61 CB         32.7834    3.8546  -10.5113 C.3       10 UNK        -0.1985 
     62 C          33.0816    2.8334   -8.1707 C.2       10 UNK         0.4970 
     63 O          34.0147    3.6057   -7.9462 O.2       10 UNK        -0.4914 
     64 N          32.8587    1.7089   -7.4755 N.am      11 UNK        -0.4285 
     65 CA         33.7563    1.0846   -6.4946 C.3       11 UNK         0.1007 
     66 C          35.1326    0.6207   -7.0683 C.2       11 UNK         0.5703 
     67 N          35.2725    0.4315   -8.3768 N.am      11 UNK        -0.7361 
     68 O          36.0821    0.3974   -6.3212 O.2       11 UNK        -0.4986 
     69 C69        33.8483    1.8983   -5.1700 C.3       12 UNK        -0.0947 
     70 S70        33.7306    0.8251   -3.6976 S.3       12 UNK        -0.2240 
     71 C71        31.9262    0.7322   -3.4685 C.3       12 UNK         0.0194 
     72 H72        28.3188   -6.1752   -3.7352 H         1 UNK         0.0906 
     73 H73        27.3823   -7.6665   -3.7255 H         1 UNK         0.0906 
     74 H74        26.6720   -6.1870   -4.3755 H         1 UNK         0.0906 
     75 H75        28.2240   -4.8792   -1.8744 H         1 UNK         0.3140 
     76 H76        26.7199   -5.7764    0.4099 H         1 UNK         0.1085 
     77 H77        27.8491   -3.9139    1.6027 H         1 UNK         0.0836 
     78 H78        28.9688   -4.9436    0.7730 H         1 UNK         0.0836 
     79 H79        31.2315   -3.1843   -0.2013 H         1 UNK         0.0731 
     80 H80        30.3821   -4.4506   -1.0560 H         1 UNK         0.0731 
     81 H81        31.4014   -0.8593   -1.3178 H         1 UNK         0.1312 
     82 H82        31.3063   -0.8566   -5.6038 H         1 UNK         0.1406 
     83 H83        30.1298   -4.3612   -3.4436 H         1 UNK         0.1631 
     84 H84        31.1983   -4.1102   -6.1792 H         1 UNK         0.0717 
     85 H85        30.4398   -2.6794   -6.8167 H         1 UNK         0.0717 
     86 H86        26.7694   -3.6285   -5.0320 H         1 UNK         0.0934 
     87 H87        27.9957   -2.4982   -4.5825 H         1 UNK         0.0934 
     88 H88        26.9659   -2.6441   -7.4705 H         1 UNK         0.0739 
     89 H89        25.4369   -1.6717   -5.2328 H         1 UNK         0.3093 
     90 H90        23.3270    0.5037   -7.0852 H         1 UNK         0.0818 
     91 H91        21.5010   -1.0039   -6.3443 H         1 UNK         0.0819 
     92 H92        22.3606   -1.7223   -7.6952 H         1 UNK         0.0819 
     93 H93        22.6524   -2.3113   -6.0645 H         1 UNK         0.0819 
     94 H94        23.1313   -0.4858   -4.4275 H         1 UNK         0.3041 
     95 H95        25.6371    1.4135   -2.8832 H         1 UNK         0.0784 
     96 H96        23.9414    3.2327   -3.1731 H         1 UNK         0.0793 
     97 H97        22.6491    2.1018   -2.7960 H         1 UNK         0.0793 
     98 H98        23.8498    2.5202   -1.5723 H         1 UNK         0.0793 
     99 H99        23.5397    0.0389   -1.6515 H         1 UNK         0.3024 
    100 H100       24.1297   -1.9087   -0.5569 H         1 UNK         0.1171 
    101 H101       22.3828   -2.4055   -2.3000 H         1 UNK         0.0786 
    102 H102       22.8659   -3.8837   -1.4863 H         1 UNK         0.0786 
    103 H103       23.4770   -3.5285   -3.0999 H         1 UNK         0.0786 
    104 H104       26.2008   -3.3143   -2.0472 H         1 UNK         0.2977 
    105 H105       27.3795   -0.0415   -5.0510 H         1 UNK         0.3127 
    106 H106       29.8333    0.9998   -6.0233 H         1 UNK         0.0770 
    107 H107       27.6160    2.4256   -4.4521 H         1 UNK         0.0814 
    108 H108       29.2804    2.9622   -4.6122 H         1 UNK         0.0814 
    109 H109       28.9211    1.4792   -3.7409 H         1 UNK         0.0814 
    110 H110       26.4401    1.9134   -6.7527 H         1 UNK         0.2983 
    111 H111       27.0089    4.0070   -8.5669 H         1 UNK         0.0947 
    112 H112       24.5952    2.1173   -8.4699 H         1 UNK         0.0806 
    113 H113       24.7669    3.6154   -7.5577 H         1 UNK         0.0806 
    114 H114       24.6527    3.6604   -9.3108 H         1 UNK         0.0806 
    115 H115       26.6265    0.4858   -9.1726 H         1 UNK         0.3000 
    116 H116       26.8633    0.6988  -12.0290 H         1 UNK         0.0850 
    117 H117       27.0372   -1.7976  -11.9099 H         1 UNK         0.0810 
    118 H118       25.6822   -1.1879  -10.9734 H         1 UNK         0.0810 
    119 H119       27.1525   -1.7092  -10.1561 H         1 UNK         0.0810 
    120 H120       29.1944   -0.3729   -9.4802 H         1 UNK         0.3040 
    121 H121       31.2677   -0.8317  -11.4967 H         1 UNK         0.0766 
    122 H122       32.4878   -1.8120   -9.5927 H         1 UNK         0.0812 
    123 H123       30.8352   -2.4055   -9.5858 H         1 UNK         0.0812 
    124 H124       31.3281   -1.1503   -8.4509 H         1 UNK         0.0812 
    125 H125       30.4057    1.8947   -9.5748 H         1 UNK         0.3205 
    126 H126       31.3462    3.7917   -8.9317 H         1 UNK         0.0754 
    127 H127       33.1712    4.8239  -10.1957 H         1 UNK         0.0769 
    128 H128       32.0788    4.0381  -11.3224 H         1 UNK         0.0769 
    129 H129       33.6221    3.2878  -10.9165 H         1 UNK         0.0769 
    130 H130       32.0550    1.1613   -7.7402 H         1 UNK         0.2981 
    131 H131       33.2568    0.1429   -6.2724 H         1 UNK         0.0541 
    132 H132       34.5083    0.5975   -9.0223 H         1 UNK         0.3459 
    133 H133       36.1635    0.1224   -8.7309 H         1 UNK         0.3459 
    134 H134       33.0554    2.6454   -5.1099 H         1 UNK         0.0612 
    135 H135       34.7769    2.4695   -5.1196 H         1 UNK         0.0612 
    136 H136       31.4158    1.2871   -4.2546 H         1 UNK         0.0624 
    137 H137       31.6646    1.2282   -2.5326 H         1 UNK         0.0624 
@<TRIPOS>BOND
     1    1    2 1    
     2    1   72 1    
     3    1   73 1    
     4    1   74 1    
     5    2    3 2    
     6    2    4 am   BACKBONE|DICT|INTERRES
     7    4    5 1    
     8    4   75 1    
     9    5    6 1    
    10    5   35 1    
    11    5   76 1    
    12    6    7 1    
    13    6   77 1    
    14    6   78 1    
    15    7    8 1    
    16    8    9 1    
    17    8   79 1    
    18    8   80 1    
    19    9   10 ar   
    20    9   14 ar   
    21   10   11 ar   
    22   10   81 1    
    23   11   12 ar   
    24   11   71 1    
    25   12   13 ar   
    26   12   82 1    
    27   13   14 ar   
    28   13   15 1    
    29   14   83 1    
    30   15   16 1    
    31   15   84 1    
    32   15   85 1    
    33   16   17 1    
    34   17   18 1    
    35   17   86 1    
    36   17   87 1    
    37   18   19 1    
    38   18   37 1    
    39   18   88 1    
    40   19   20 am   BACKBONE|DICT|INTERRES
    41   19   89 1    
    42   20   21 2    
    43   20   22 1    
    44   22   23 1    
    45   22   24 1    
    46   22   90 1    
    47   23   91 1    
    48   23   92 1    
    49   23   93 1    
    50   24   25 am   BACKBONE|DICT|INTERRES
    51   24   94 1    
    52   25   26 2    
    53   25   27 1    
    54   27   28 1    
    55   27   29 1    
    56   27   95 1    
    57   28   96 1    
    58   28   97 1    
    59   28   98 1    
    60   29   30 am   BACKBONE|DICT|INTERRES
    61   29   99 1    
    62   30   31 2    
    63   30   32 1    
    64   32   33 1    
    65   32   34 1    
    66   32  100 1    
    67   33  101 1    
    68   33  102 1    
    69   33  103 1    
    70   34   35 am   BACKBONE|DICT|INTERRES
    71   34  104 1    
    72   35   36 2    
    73   37   38 2    
    74   37   39 am   BACKBONE|DICT|INTERRES
    75   39   40 1    
    76   39  105 1    
    77   40   41 1    
    78   40   42 1    
    79   40  106 1    
    80   41  107 1    
    81   41  108 1    
    82   41  109 1    
    83   42   43 2    
    84   42   44 am   BACKBONE|DICT|INTERRES
    85   44   45 1    
    86   44  110 1    
    87   45   46 1    
    88   45   47 1    
    89   45  111 1    
    90   46  112 1    
    91   46  113 1    
    92   46  114 1    
    93   47   48 2    
    94   47   49 am   BACKBONE|DICT|INTERRES
    95   49   50 1    
    96   49  115 1    
    97   50   51 1    
    98   50   52 1    
    99   50  116 1    
   100   51  117 1    
   101   51  118 1    
   102   51  119 1    
   103   52   53 2    
   104   52   54 am   BACKBONE|DICT|INTERRES
   105   54   55 1    
   106   54  120 1    
   107   55   56 1    
   108   55   57 1    
   109   55  121 1    
   110   56  122 1    
   111   56  123 1    
   112   56  124 1    
   113   57   58 2    
   114   57   59 am   BACKBONE|DICT|INTERRES
   115   59   60 1    
   116   59  125 1    
   117   60   61 1    
   118   60   62 1    
   119   60  126 1    
   120   61  127 1    
   121   61  128 1    
   122   61  129 1    
   123   62   63 2    
   124   62   64 am   BACKBONE|DICT|INTERRES
   125   64   65 1    
   126   64  130 1    
   127   65   66 1    
   128   65   69 1    
   129   65  131 1    
   130   66   67 am   BACKBONE|DICT|INTERRES
   131   66   68 2    
   132   67  132 1    
   133   67  133 1    
   134   69   70 1    
   135   69  134 1    
   136   69  135 1    
   137   70   71 1    
   138   71  136 1    
   139   71  137 1    
@<TRIPOS>SUBSTRUCTURE
     1 UNK         1 GROUP             0       ****    0 ROOT    
