@<TRIPOS>MOLECULE
3R137
137   139    1
SMALL
USER_CHARGES


@<TRIPOS>ATOM
      1 CA         25.8166   -9.3394   -2.6212 C.3       0 UNK        -0.2020 
      2 C          26.2972   -8.1946   -1.7425 C.2       0 UNK         0.4855 
      3 O          26.2550   -8.3029   -0.5170 O.2       0 UNK        -0.5197 
      4 N          26.7495   -7.0943   -2.3579 N.am      1 UNK        -0.4892 
      5 CA         27.2484   -5.8898   -1.6786 C.3       1 UNK         0.0835 
      6 C6         28.2507   -5.1045   -2.5622 C.3       12 UNK        -0.0855 
      7 S7         27.6293   -4.6946   -4.2321 S.3       12 UNK        -0.2931 
      8 C8         27.4197   -2.8913   -4.1209 C.3       12 UNK         0.0378 
      9 C9         28.7419   -2.1483   -4.0093 C.ar      12 UNK        -0.0802 
     10 C10        29.5795   -2.0394   -5.1216 C.ar      12 UNK        -0.0944 
     11 C11        30.7668   -1.3057   -5.0489 C.ar      12 UNK        -0.0787 
     12 C12        31.1233   -0.6881   -3.8468 C.ar      12 UNK        -0.0862 
     13 C13        30.2898   -0.7875   -2.7277 C.ar      12 UNK        -0.0733 
     14 C14        29.1043   -1.5248   -2.8125 C.ar      12 UNK        -0.0832 
     15 C15        30.6413   -0.0594   -1.4395 C.3       12 UNK         0.0240 
     16 S16        29.4764    1.3005   -1.1015 S.3       12 UNK        -0.2522 
     17 C17        29.7657    2.4131   -2.5217 C.3       12 UNK        -0.0967 
     18 CA         28.7959    2.1667   -3.7121 C.3       5 UNK         0.0660 
     19 N          27.3899    2.2098   -3.2985 N.am      5 UNK        -0.4015 
     20 C          26.3842    1.5829   -3.9196 C.2       4 UNK         0.4946 
     21 O          26.5138    0.9458   -4.9684 O.2       4 UNK        -0.5353 
     22 CA         24.9911    1.7333   -3.2842 C.3       4 UNK         0.0277 
     23 CB         24.2695    2.9598   -3.8674 C.3       4 UNK        -0.1981 
     24 N          24.1648    0.5425   -3.4995 N.am      4 UNK        -0.4209 
     25 C          24.4135   -0.6591   -2.9620 C.2       3 UNK         0.4942 
     26 O          25.3168   -0.8657   -2.1480 O.2       3 UNK        -0.5208 
     27 CA         23.4972   -1.8096   -3.4244 C.3       3 UNK         0.0250 
     28 CB         23.6480   -2.0903   -4.9310 C.3       3 UNK        -0.1990 
     29 N          23.7479   -3.0516   -2.6877 N.am      3 UNK        -0.4232 
     30 C          23.3029   -3.3048   -1.4503 C.2       2 UNK         0.4993 
     31 O          22.5910   -2.5307   -0.8078 O.2       2 UNK        -0.5286 
     32 CA         23.6775   -4.6606   -0.8277 C.3       2 UNK         0.0209 
     33 CB         22.4948   -5.6390   -0.9291 C.3       2 UNK        -0.1931 
     34 N          24.8613   -5.2903   -1.4227 N.am      2 UNK        -0.4546 
     35 C          26.1284   -4.9926   -1.0984 C.2       1 UNK         0.5154 
     36 O          26.4313   -4.0728   -0.3373 O.2       1 UNK        -0.5181 
     37 C          29.0607    3.1309   -4.8878 C.2       5 UNK         0.5014 
     38 O          29.8393    4.0760   -4.7461 O.2       5 UNK        -0.5248 
     39 N          28.3963    2.8941   -6.0227 N.am      6 UNK        -0.4434 
     40 CA         28.5222    3.6698   -7.2505 C.3       6 UNK         0.0363 
     41 CB         27.6340    4.9249   -7.1736 C.3       6 UNK        -0.1936 
     42 C          28.1144    2.7945   -8.4371 C.2       6 UNK         0.5081 
     43 O          27.1919    1.9870   -8.3091 O.2       6 UNK        -0.5248 
     44 N          28.7804    3.0064   -9.5784 N.am      7 UNK        -0.4718 
     45 CA         28.5024    2.4848  -10.9243 C.3       7 UNK         0.0273 
     46 CB         27.1164    2.9398  -11.4211 C.3       7 UNK        -0.1935 
     47 C          28.6770    0.9681  -11.1192 C.2       7 UNK         0.5018 
     48 O          29.2299    0.5787  -12.1485 O.2       7 UNK        -0.5186 
     49 N          28.2300    0.1534  -10.1519 N.am      8 UNK        -0.4240 
     50 CA         28.1410   -1.3164  -10.1834 C.3       8 UNK         0.0235 
     51 CB         27.7423   -1.8257   -8.7885 C.3       8 UNK        -0.2000 
     52 C          29.4004   -2.0450  -10.6889 C.2       8 UNK         0.4941 
     53 O          29.2853   -2.9905  -11.4698 O.2       8 UNK        -0.5273 
     54 N          30.5705   -1.5520  -10.2762 N.am      9 UNK        -0.4262 
     55 CA         31.8796   -1.8795  -10.8357 C.3       9 UNK         0.0264 
     56 CB         32.5312   -3.0117  -10.0187 C.3       9 UNK        -0.1955 
     57 C          32.7144   -0.5901  -10.8647 C.2       9 UNK         0.5031 
     58 O          33.8505   -0.5810  -10.3862 O.2       9 UNK        -0.5390 
     59 N          32.0942    0.5037  -11.3402 N.am      10 UNK        -0.4204 
     60 CA         32.5085    1.9137  -11.2419 C.3       10 UNK         0.0237 
     61 CB         33.8618    2.1785  -11.9311 C.3       10 UNK        -0.1985 
     62 C          32.4874    2.4374   -9.7930 C.2       10 UNK         0.4970 
     63 O          31.7860    3.4101   -9.5119 O.2       10 UNK        -0.4914 
     64 N          33.2119    1.7447   -8.9071 N.am      11 UNK        -0.4285 
     65 CA         33.2249    1.8897   -7.4415 C.3       11 UNK         0.1007 
     66 C          33.8817    3.1976   -6.9071 C.2       11 UNK         0.5703 
     67 N          34.5614    3.9841   -7.7329 N.am      11 UNK        -0.7361 
     68 O          33.8108    3.4864   -5.7150 O.2       11 UNK        -0.4986 
     69 C69        31.8426    1.6053   -6.7825 C.3       12 UNK        -0.0947 
     70 S70        31.0233    0.0997   -7.4105 S.3       12 UNK        -0.2240 
     71 C71        31.6492   -1.1781   -6.2789 C.3       12 UNK         0.0194 
     72 H72        25.9089   -9.1067   -3.6819 H         1 UNK         0.0906 
     73 H73        26.4004  -10.2372   -2.4195 H         1 UNK         0.0906 
     74 H74        24.7700   -9.5596   -2.4120 H         1 UNK         0.0906 
     75 H75        26.7691   -7.0512   -3.3684 H         1 UNK         0.3140 
     76 H76        27.8114   -6.2255   -0.8043 H         1 UNK         0.1085 
     77 H77        29.1495   -5.7081   -2.6975 H         1 UNK         0.0836 
     78 H78        28.5926   -4.2047   -2.0490 H         1 UNK         0.0836 
     79 H79        26.7722   -2.6634   -3.2751 H         1 UNK         0.0731 
     80 H80        26.9036   -2.5396   -5.0140 H         1 UNK         0.0731 
     81 H81        29.2980   -2.5164   -6.0499 H         1 UNK         0.1312 
     82 H82        32.0368   -0.1121   -3.7899 H         1 UNK         0.1406 
     83 H83        28.4469   -1.5823   -1.9546 H         1 UNK         0.1631 
     84 H84        31.6581    0.3349   -1.4739 H         1 UNK         0.0717 
     85 H85        30.6128   -0.7657   -0.6085 H         1 UNK         0.0717 
     86 H86        29.6680    3.4378   -2.1578 H         1 UNK         0.0934 
     87 H87        30.8027    2.3104   -2.8475 H         1 UNK         0.0934 
     88 H88        28.9961    1.1674   -4.1006 H         1 UNK         0.0739 
     89 H89        27.1972    2.7331   -2.4571 H         1 UNK         0.3093 
     90 H90        25.1083    1.8720   -2.2071 H         1 UNK         0.0818 
     91 H91        24.8435    3.8713   -3.6948 H         1 UNK         0.0819 
     92 H92        24.1243    2.8674   -4.9447 H         1 UNK         0.0819 
     93 H93        23.2919    3.1031   -3.4067 H         1 UNK         0.0819 
     94 H94        23.4259    0.6262   -4.1820 H         1 UNK         0.3041 
     95 H95        22.4662   -1.5000   -3.2389 H         1 UNK         0.0784 
     96 H96        23.4302   -1.2048   -5.5290 H         1 UNK         0.0793 
     97 H97        24.6555   -2.4127   -5.1870 H         1 UNK         0.0793 
     98 H98        22.9585   -2.8696   -5.2565 H         1 UNK         0.0793 
     99 H99        24.3535   -3.7306   -3.1234 H         1 UNK         0.3024 
    100 H100       23.8767   -4.4792    0.2314 H         1 UNK         0.1171 
    101 H101       22.2461   -5.8673   -1.9663 H         1 UNK         0.0786 
    102 H102       22.7123   -6.5784   -0.4202 H         1 UNK         0.0786 
    103 H103       21.6006   -5.2210   -0.4642 H         1 UNK         0.0786 
    104 H104       24.7058   -6.0677   -2.0481 H         1 UNK         0.2977 
    105 H105       27.7567    2.1018   -6.0671 H         1 UNK         0.3127 
    106 H106       29.5606    3.9797   -7.3824 H         1 UNK         0.0770 
    107 H107       26.5857    4.6650   -7.0202 H         1 UNK         0.0814 
    108 H108       27.6961    5.5051   -8.0951 H         1 UNK         0.0814 
    109 H109       27.9395    5.5804   -6.3580 H         1 UNK         0.0814 
    110 H110       29.5907    3.6150   -9.5319 H         1 UNK         0.2983 
    111 H111       29.2432    2.9593  -11.5701 H         1 UNK         0.0947 
    112 H112       26.9541    2.6349  -12.4559 H         1 UNK         0.0806 
    113 H113       27.0187    4.0248  -11.3851 H         1 UNK         0.0806 
    114 H114       26.3082    2.5106  -10.8278 H         1 UNK         0.0806 
    115 H115       27.7958    0.6155   -9.3544 H         1 UNK         0.3000 
    116 H116       27.3344   -1.5636  -10.8762 H         1 UNK         0.0850 
    117 H117       28.4653   -1.5236   -8.0312 H         1 UNK         0.0810 
    118 H118       27.6788   -2.9146   -8.7677 H         1 UNK         0.0810 
    119 H119       26.7681   -1.4387   -8.4884 H         1 UNK         0.0810 
    120 H120       30.5574   -0.7933   -9.6052 H         1 UNK         0.3040 
    121 H121       31.7694   -2.2100  -11.8708 H         1 UNK         0.0766 
    122 H122       32.6990   -2.7142   -8.9833 H         1 UNK         0.0812 
    123 H123       31.9086   -3.9064  -10.0144 H         1 UNK         0.0812 
    124 H124       33.4977   -3.2907  -10.4401 H         1 UNK         0.0812 
    125 H125       31.1556    0.3711  -11.7105 H         1 UNK         0.3205 
    126 H126       31.7533    2.4790  -11.7901 H         1 UNK         0.0754 
    127 H127       34.0918    3.2448  -11.9342 H         1 UNK         0.0769 
    128 H128       33.8459    1.8483  -12.9697 H         1 UNK         0.0769 
    129 H129       34.6893    1.6726  -11.4335 H         1 UNK         0.0769 
    130 H130       33.7209    0.9426   -9.2697 H         1 UNK         0.2981 
    131 H131       33.8962    1.1007   -7.1018 H         1 UNK         0.0541 
    132 H132       34.9946    4.8205   -7.3749 H         1 UNK         0.3459 
    133 H133       34.6333    3.7538   -8.7106 H         1 UNK         0.3459 
    134 H134       31.1732    2.4424   -6.9683 H         1 UNK         0.0612 
    135 H135       31.9359    1.5318   -5.6982 H         1 UNK         0.0612 
    136 H136       31.6688   -2.1319   -6.8077 H         1 UNK         0.0624 
    137 H137       32.6819   -0.9611   -6.0025 H         1 UNK         0.0624 
@<TRIPOS>BOND
     1    1    2 1    
     2    1   72 1    
     3    1   73 1    
     4    1   74 1    
     5    2    3 2    
     6    2    4 am   BACKBONE|DICT|INTERRES
     7    4    5 1    
     8    4   75 1    
     9    5    6 1    
    10    5   35 1    
    11    5   76 1    
    12    6    7 1    
    13    6   77 1    
    14    6   78 1    
    15    7    8 1    
    16    8    9 1    
    17    8   79 1    
    18    8   80 1    
    19    9   10 ar   
    20    9   14 ar   
    21   10   11 ar   
    22   10   81 1    
    23   11   12 ar   
    24   11   71 1    
    25   12   13 ar   
    26   12   82 1    
    27   13   14 ar   
    28   13   15 1    
    29   14   83 1    
    30   15   16 1    
    31   15   84 1    
    32   15   85 1    
    33   16   17 1    
    34   17   18 1    
    35   17   86 1    
    36   17   87 1    
    37   18   19 1    
    38   18   37 1    
    39   18   88 1    
    40   19   20 am   BACKBONE|DICT|INTERRES
    41   19   89 1    
    42   20   21 2    
    43   20   22 1    
    44   22   23 1    
    45   22   24 1    
    46   22   90 1    
    47   23   91 1    
    48   23   92 1    
    49   23   93 1    
    50   24   25 am   BACKBONE|DICT|INTERRES
    51   24   94 1    
    52   25   26 2    
    53   25   27 1    
    54   27   28 1    
    55   27   29 1    
    56   27   95 1    
    57   28   96 1    
    58   28   97 1    
    59   28   98 1    
    60   29   30 am   BACKBONE|DICT|INTERRES
    61   29   99 1    
    62   30   31 2    
    63   30   32 1    
    64   32   33 1    
    65   32   34 1    
    66   32  100 1    
    67   33  101 1    
    68   33  102 1    
    69   33  103 1    
    70   34   35 am   BACKBONE|DICT|INTERRES
    71   34  104 1    
    72   35   36 2    
    73   37   38 2    
    74   37   39 am   BACKBONE|DICT|INTERRES
    75   39   40 1    
    76   39  105 1    
    77   40   41 1    
    78   40   42 1    
    79   40  106 1    
    80   41  107 1    
    81   41  108 1    
    82   41  109 1    
    83   42   43 2    
    84   42   44 am   BACKBONE|DICT|INTERRES
    85   44   45 1    
    86   44  110 1    
    87   45   46 1    
    88   45   47 1    
    89   45  111 1    
    90   46  112 1    
    91   46  113 1    
    92   46  114 1    
    93   47   48 2    
    94   47   49 am   BACKBONE|DICT|INTERRES
    95   49   50 1    
    96   49  115 1    
    97   50   51 1    
    98   50   52 1    
    99   50  116 1    
   100   51  117 1    
   101   51  118 1    
   102   51  119 1    
   103   52   53 2    
   104   52   54 am   BACKBONE|DICT|INTERRES
   105   54   55 1    
   106   54  120 1    
   107   55   56 1    
   108   55   57 1    
   109   55  121 1    
   110   56  122 1    
   111   56  123 1    
   112   56  124 1    
   113   57   58 2    
   114   57   59 am   BACKBONE|DICT|INTERRES
   115   59   60 1    
   116   59  125 1    
   117   60   61 1    
   118   60   62 1    
   119   60  126 1    
   120   61  127 1    
   121   61  128 1    
   122   61  129 1    
   123   62   63 2    
   124   62   64 am   BACKBONE|DICT|INTERRES
   125   64   65 1    
   126   64  130 1    
   127   65   66 1    
   128   65   69 1    
   129   65  131 1    
   130   66   67 am   BACKBONE|DICT|INTERRES
   131   66   68 2    
   132   67  132 1    
   133   67  133 1    
   134   69   70 1    
   135   69  134 1    
   136   69  135 1    
   137   70   71 1    
   138   71  136 1    
   139   71  137 1    
@<TRIPOS>SUBSTRUCTURE
     1 UNK         1 GROUP             0       ****    0 ROOT    
