@<TRIPOS>MOLECULE
3R137
137   139    1
SMALL
USER_CHARGES


@<TRIPOS>ATOM
      1 CA         24.2998   -4.7758   -3.0193 C.3       0 UNK        -0.2020 
      2 C          25.5724   -3.9820   -2.7672 C.2       0 UNK         0.4855 
      3 O          25.9991   -3.2211   -3.6375 O.2       0 UNK        -0.5197 
      4 N          26.1651   -4.1509   -1.5740 N.am      1 UNK        -0.4892 
      5 CA         27.4153   -3.5200   -1.1170 C.3       1 UNK         0.0835 
      6 C6         28.6507   -4.0713   -1.8794 C.3       12 UNK        -0.0855 
      7 S7         30.1676   -4.1650   -0.8662 S.3       12 UNK        -0.2931 
      8 C8         31.1366   -5.4195   -1.7735 C.3       12 UNK         0.0378 
      9 C9         31.4139   -4.9872   -3.2070 C.ar      12 UNK        -0.0802 
     10 C10        32.5072   -4.1664   -3.5036 C.ar      12 UNK        -0.0944 
     11 C11        32.7154   -3.7127   -4.8104 C.ar      12 UNK        -0.0787 
     12 C12        31.8235   -4.0829   -5.8201 C.ar      12 UNK        -0.0862 
     13 C13        30.7197   -4.8888   -5.5307 C.ar      12 UNK        -0.0733 
     14 C14        30.5423   -5.3691   -4.2314 C.ar      12 UNK        -0.0832 
     15 C15        29.6726   -5.1687   -6.6003 C.3       12 UNK         0.0240 
     16 S16        28.0572   -4.4298   -6.1719 S.3       12 UNK        -0.2522 
     17 C17        28.4998   -2.6893   -5.8290 C.3       12 UNK        -0.0967 
     18 CA         27.6124   -1.6943   -6.6010 C.3       5 UNK         0.0660 
     19 N          26.2072   -1.7250   -6.1734 N.am      5 UNK        -0.4015 
     20 C          25.2196   -1.1314   -6.8610 C.2       4 UNK         0.4946 
     21 O          25.4043   -0.5169   -7.9133 O.2       4 UNK        -0.5353 
     22 CA         23.8103   -1.1702   -6.2558 C.3       4 UNK         0.0277 
     23 CB         23.3228   -2.6057   -6.0054 C.3       4 UNK        -0.1981 
     24 N          23.7198   -0.3722   -5.0299 N.am      4 UNK        -0.4209 
     25 C          23.7578    0.9669   -4.9914 C.2       3 UNK         0.4942 
     26 O          23.9313    1.6729   -5.9838 O.2       3 UNK        -0.5208 
     27 CA         23.5651    1.6519   -3.6261 C.3       3 UNK         0.0250 
     28 CB         22.1065    1.5347   -3.1390 C.3       3 UNK        -0.1990 
     29 N          24.5227    1.2407   -2.5898 N.am      3 UNK        -0.4232 
     30 C          24.6473    0.0444   -2.0015 C.2       2 UNK         0.4993 
     31 O          23.9376   -0.9321   -2.2608 O.2       2 UNK        -0.5286 
     32 CA         25.7335   -0.0647   -0.9226 C.3       2 UNK         0.0209 
     33 CB         25.1964    0.4269    0.4320 C.3       2 UNK        -0.1931 
     34 N          26.1224   -1.4655   -0.7970 N.am      2 UNK        -0.4546 
     35 C          27.3243   -1.9727   -1.0967 C.2       1 UNK         0.5154 
     36 O          28.3059   -1.2775   -1.3652 O.2       1 UNK        -0.5181 
     37 C          28.2136   -0.2760   -6.5461 C.2       5 UNK         0.5014 
     38 O          29.1209    0.0143   -7.3256 O.2       5 UNK        -0.5248 
     39 N          27.6745    0.6026   -5.6884 N.am      6 UNK        -0.4434 
     40 CA         28.0293    2.0240   -5.6317 C.3       6 UNK         0.0363 
     41 CB         27.3359    2.6797   -4.4282 C.3       6 UNK        -0.1936 
     42 C          27.7041    2.7907   -6.9297 C.2       6 UNK         0.5081 
     43 O          28.3690    3.7863   -7.2134 O.2       6 UNK        -0.5248 
     44 N          26.7164    2.3109   -7.6976 N.am      7 UNK        -0.4718 
     45 CA         26.3914    2.8099   -9.0312 C.3       7 UNK         0.0273 
     46 CB         24.8643    2.8229   -9.2116 C.3       7 UNK        -0.1935 
     47 C          27.0597    1.9573  -10.1207 C.2       7 UNK         0.5018 
     48 O          27.6452    2.5204  -11.0459 O.2       7 UNK        -0.5186 
     49 N          26.9372    0.6250  -10.0144 N.am      8 UNK        -0.4240 
     50 CA         27.3539   -0.3242  -11.0509 C.3       8 UNK         0.0235 
     51 CB         26.6860   -1.6872  -10.8054 C.3       8 UNK        -0.2000 
     52 C          28.8767   -0.4833  -11.1917 C.2       8 UNK         0.4941 
     53 O          29.3655   -0.5409  -12.3211 O.2       8 UNK        -0.5273 
     54 N          29.5927   -0.5693  -10.0633 N.am      9 UNK        -0.4262 
     55 CA         31.0510   -0.7102  -10.0158 C.3       9 UNK         0.0264 
     56 CB         31.4386   -1.7874   -8.9863 C.3       9 UNK        -0.1955 
     57 C          31.7213    0.6277   -9.6767 C.2       9 UNK         0.5031 
     58 O          32.7486    0.9508  -10.2742 O.2       9 UNK        -0.5390 
     59 N          31.1265    1.3738   -8.7321 N.am      10 UNK        -0.4204 
     60 CA         31.5619    2.6814   -8.2240 C.3       10 UNK         0.0237 
     61 CB         31.4275    3.7665   -9.3133 C.3       10 UNK        -0.1985 
     62 C          32.9557    2.6456   -7.5652 C.2       10 UNK         0.4970 
     63 O          33.7311    3.5939   -7.6994 O.2       10 UNK        -0.4914 
     64 N          33.2402    1.5468   -6.8558 N.am      11 UNK        -0.4285 
     65 CA         34.4857    1.3041   -6.1121 C.3       11 UNK         0.1007 
     66 C          34.6474    2.1250   -4.7979 C.2       11 UNK         0.5703 
     67 N          33.6253    2.8216   -4.3140 N.am      11 UNK        -0.7361 
     68 O          35.7292    2.1418   -4.2150 O.2       11 UNK        -0.4986 
     69 C69        34.7158   -0.2150   -5.8885 C.3       12 UNK        -0.0947 
     70 S70        33.3130   -1.0492   -5.0726 S.3       12 UNK        -0.2240 
     71 C71        33.8682   -2.7781   -5.1341 C.3       12 UNK         0.0194 
     72 H72        24.3635   -5.2924   -3.9766 H         1 UNK         0.0906 
     73 H73        24.1236   -5.5222   -2.2451 H         1 UNK         0.0906 
     74 H74        23.4416   -4.1047   -3.0463 H         1 UNK         0.0906 
     75 H75        25.7406   -4.7822   -0.9076 H         1 UNK         0.3140 
     76 H76        27.5124   -3.8137   -0.0703 H         1 UNK         0.1085 
     77 H77        28.4355   -5.0844   -2.2211 H         1 UNK         0.0836 
     78 H78        28.8530   -3.4934   -2.7808 H         1 UNK         0.0836 
     79 H79        32.0784   -5.5885   -1.2493 H         1 UNK         0.0731 
     80 H80        30.6043   -6.3720   -1.7576 H         1 UNK         0.0731 
     81 H81        33.1764   -3.8557   -2.7127 H         1 UNK         0.1312 
     82 H82        31.9662   -3.7027   -6.8219 H         1 UNK         0.1406 
     83 H83        29.6830   -5.9867   -4.0089 H         1 UNK         0.1631 
     84 H84        29.9912   -4.7825   -7.5698 H         1 UNK         0.0717 
     85 H85        29.5535   -6.2464   -6.7189 H         1 UNK         0.0717 
     86 H86        28.4297   -2.5093   -4.7563 H         1 UNK         0.0934 
     87 H87        29.5461   -2.5303   -6.0930 H         1 UNK         0.0934 
     88 H88        27.6369   -1.9898   -7.6508 H         1 UNK         0.0739 
     89 H89        26.0069   -2.2307   -5.3121 H         1 UNK         0.3093 
     90 H90        23.1352   -0.7243   -6.9899 H         1 UNK         0.0818 
     91 H91        22.2893   -2.6177   -5.6592 H         1 UNK         0.0819 
     92 H92        23.3645   -3.1962   -6.9216 H         1 UNK         0.0819 
     93 H93        23.9286   -3.1184   -5.2624 H         1 UNK         0.0819 
     94 H94        23.6356   -0.8639   -4.1428 H         1 UNK         0.3041 
     95 H95        23.7569    2.7141   -3.7881 H         1 UNK         0.0784 
     96 H96        21.4161    1.9337   -3.8834 H         1 UNK         0.0793 
     97 H97        21.8146    0.5012   -2.9510 H         1 UNK         0.0793 
     98 H98        21.9507    2.0980   -2.2190 H         1 UNK         0.0793 
     99 H99        25.1515    1.9730   -2.2896 H         1 UNK         0.3024 
    100 H100       26.5881    0.5488   -1.2175 H         1 UNK         0.1171 
    101 H101       24.9048    1.4769    0.3828 H         1 UNK         0.0786 
    102 H102       24.3207   -0.1407    0.7502 H         1 UNK         0.0786 
    103 H103       25.9530    0.3383    1.2120 H         1 UNK         0.0786 
    104 H104       25.3535   -2.1148   -0.6989 H         1 UNK         0.2977 
    105 H105       26.9302    0.2880   -5.0845 H         1 UNK         0.3127 
    106 H106       29.1088    2.0861   -5.4784 H         1 UNK         0.0770 
    107 H107       26.2532    2.6928   -4.5479 H         1 UNK         0.0814 
    108 H108       27.6593    3.7154   -4.3140 H         1 UNK         0.0814 
    109 H109       27.5738    2.1629   -3.4983 H         1 UNK         0.0814 
    110 H110       26.2013    1.4961   -7.3860 H         1 UNK         0.2983 
    111 H111       26.7488    3.8359   -9.1451 H         1 UNK         0.0947 
    112 H112       24.5899    3.1868  -10.2026 H         1 UNK         0.0806 
    113 H113       24.3879    3.4770   -8.4810 H         1 UNK         0.0806 
    114 H114       24.4310    1.8285   -9.0949 H         1 UNK         0.0806 
    115 H115       26.4069    0.2430   -9.2325 H         1 UNK         0.3000 
    116 H116       26.9817    0.0539  -12.0058 H         1 UNK         0.0850 
    117 H117       26.9337   -2.3914  -11.6008 H         1 UNK         0.0810 
    118 H118       25.5998   -1.5973  -10.7794 H         1 UNK         0.0810 
    119 H119       27.0053   -2.1348   -9.8651 H         1 UNK         0.0810 
    120 H120       29.1247   -0.4591   -9.1695 H         1 UNK         0.3040 
    121 H121       31.4296   -1.0333  -10.9879 H         1 UNK         0.0766 
    122 H122       30.9819   -2.7470   -9.2284 H         1 UNK         0.0812 
    123 H123       31.1372   -1.5201   -7.9736 H         1 UNK         0.0812 
    124 H124       32.5191   -1.9372   -8.9710 H         1 UNK         0.0812 
    125 H125       30.3183    0.9691   -8.2601 H         1 UNK         0.3205 
    126 H126       30.8694    2.9377   -7.4225 H         1 UNK         0.0754 
    127 H127       31.6216    4.7585   -8.9039 H         1 UNK         0.0769 
    128 H128       30.4198    3.7818   -9.7298 H         1 UNK         0.0769 
    129 H129       32.1286    3.6083  -10.1332 H         1 UNK         0.0769 
    130 H130       32.5449    0.8192   -6.7819 H         1 UNK         0.2981 
    131 H131       35.3002    1.6464   -6.7532 H         1 UNK         0.0541 
    132 H132       32.7341    2.8134   -4.7812 H         1 UNK         0.3459 
    133 H133       33.7483    3.3527   -3.4666 H         1 UNK         0.3459 
    134 H134       35.6246   -0.3963   -5.3114 H         1 UNK         0.0612 
    135 H135       34.8764   -0.6965   -6.8544 H         1 UNK         0.0612 
    136 H136       34.6914   -2.9214   -4.4325 H         1 UNK         0.0624 
    137 H137       34.2590   -3.0049   -6.1273 H         1 UNK         0.0624 
@<TRIPOS>BOND
     1    1    2 1    
     2    1   72 1    
     3    1   73 1    
     4    1   74 1    
     5    2    3 2    
     6    2    4 am   BACKBONE|DICT|INTERRES
     7    4    5 1    
     8    4   75 1    
     9    5    6 1    
    10    5   35 1    
    11    5   76 1    
    12    6    7 1    
    13    6   77 1    
    14    6   78 1    
    15    7    8 1    
    16    8    9 1    
    17    8   79 1    
    18    8   80 1    
    19    9   10 ar   
    20    9   14 ar   
    21   10   11 ar   
    22   10   81 1    
    23   11   12 ar   
    24   11   71 1    
    25   12   13 ar   
    26   12   82 1    
    27   13   14 ar   
    28   13   15 1    
    29   14   83 1    
    30   15   16 1    
    31   15   84 1    
    32   15   85 1    
    33   16   17 1    
    34   17   18 1    
    35   17   86 1    
    36   17   87 1    
    37   18   19 1    
    38   18   37 1    
    39   18   88 1    
    40   19   20 am   BACKBONE|DICT|INTERRES
    41   19   89 1    
    42   20   21 2    
    43   20   22 1    
    44   22   23 1    
    45   22   24 1    
    46   22   90 1    
    47   23   91 1    
    48   23   92 1    
    49   23   93 1    
    50   24   25 am   BACKBONE|DICT|INTERRES
    51   24   94 1    
    52   25   26 2    
    53   25   27 1    
    54   27   28 1    
    55   27   29 1    
    56   27   95 1    
    57   28   96 1    
    58   28   97 1    
    59   28   98 1    
    60   29   30 am   BACKBONE|DICT|INTERRES
    61   29   99 1    
    62   30   31 2    
    63   30   32 1    
    64   32   33 1    
    65   32   34 1    
    66   32  100 1    
    67   33  101 1    
    68   33  102 1    
    69   33  103 1    
    70   34   35 am   BACKBONE|DICT|INTERRES
    71   34  104 1    
    72   35   36 2    
    73   37   38 2    
    74   37   39 am   BACKBONE|DICT|INTERRES
    75   39   40 1    
    76   39  105 1    
    77   40   41 1    
    78   40   42 1    
    79   40  106 1    
    80   41  107 1    
    81   41  108 1    
    82   41  109 1    
    83   42   43 2    
    84   42   44 am   BACKBONE|DICT|INTERRES
    85   44   45 1    
    86   44  110 1    
    87   45   46 1    
    88   45   47 1    
    89   45  111 1    
    90   46  112 1    
    91   46  113 1    
    92   46  114 1    
    93   47   48 2    
    94   47   49 am   BACKBONE|DICT|INTERRES
    95   49   50 1    
    96   49  115 1    
    97   50   51 1    
    98   50   52 1    
    99   50  116 1    
   100   51  117 1    
   101   51  118 1    
   102   51  119 1    
   103   52   53 2    
   104   52   54 am   BACKBONE|DICT|INTERRES
   105   54   55 1    
   106   54  120 1    
   107   55   56 1    
   108   55   57 1    
   109   55  121 1    
   110   56  122 1    
   111   56  123 1    
   112   56  124 1    
   113   57   58 2    
   114   57   59 am   BACKBONE|DICT|INTERRES
   115   59   60 1    
   116   59  125 1    
   117   60   61 1    
   118   60   62 1    
   119   60  126 1    
   120   61  127 1    
   121   61  128 1    
   122   61  129 1    
   123   62   63 2    
   124   62   64 am   BACKBONE|DICT|INTERRES
   125   64   65 1    
   126   64  130 1    
   127   65   66 1    
   128   65   69 1    
   129   65  131 1    
   130   66   67 am   BACKBONE|DICT|INTERRES
   131   66   68 2    
   132   67  132 1    
   133   67  133 1    
   134   69   70 1    
   135   69  134 1    
   136   69  135 1    
   137   70   71 1    
   138   71  136 1    
   139   71  137 1    
@<TRIPOS>SUBSTRUCTURE
     1 UNK         1 GROUP             0       ****    0 ROOT    
