@<TRIPOS>MOLECULE
3R137
137   139    1
SMALL
USER_CHARGES


@<TRIPOS>ATOM
      1 CA         24.4315   -3.6233   -0.4571 C.3       0 UNK        -0.2020 
      2 C          25.3323   -2.4098   -0.6248 C.2       0 UNK         0.4855 
      3 O          24.9314   -1.2985   -0.2768 O.2       0 UNK        -0.5197 
      4 N          26.5434   -2.6104   -1.1622 N.am      1 UNK        -0.4892 
      5 CA         27.5396   -1.5692   -1.4406 C.3       1 UNK         0.0835 
      6 C6         28.8490   -2.1612   -2.0136 C.3       12 UNK        -0.0855 
      7 S7         29.7068   -3.2570   -0.8313 S.3       12 UNK        -0.2931 
      8 C8         29.7047   -4.8670   -1.6985 C.3       12 UNK         0.0378 
      9 C9         30.2987   -4.8219   -3.1059 C.ar      12 UNK        -0.0802 
     10 C10        31.4498   -4.0759   -3.3874 C.ar      12 UNK        -0.0944 
     11 C11        31.9550   -4.0071   -4.6890 C.ar      12 UNK        -0.0787 
     12 C12        31.3212   -4.7169   -5.7115 C.ar      12 UNK        -0.0862 
     13 C13        30.1721   -5.4686   -5.4447 C.ar      12 UNK        -0.0733 
     14 C14        29.6730   -5.5258   -4.1402 C.ar      12 UNK        -0.0832 
     15 C15        29.4316   -6.1625   -6.5805 C.3       12 UNK         0.0240 
     16 S16        27.8523   -5.3349   -6.9764 S.3       12 UNK        -0.2522 
     17 C17        28.3995   -3.6110   -7.2326 C.3       12 UNK        -0.0967 
     18 CA         27.2491   -2.5788   -7.3133 C.3       5 UNK         0.0660 
     19 N          26.2644   -2.7542   -6.2440 N.am      5 UNK        -0.4015 
     20 C          25.1273   -2.0639   -6.0918 C.2       4 UNK         0.4946 
     21 O          24.8246   -1.0811   -6.7713 O.2       4 UNK        -0.5353 
     22 CA         24.1435   -2.5667   -5.0224 C.3       4 UNK         0.0277 
     23 CB         24.6244   -3.8073   -4.2382 C.3       4 UNK        -0.1981 
     24 N          23.8831   -1.4801   -4.0867 N.am      4 UNK        -0.4209 
     25 C          22.6747   -1.0409   -3.7099 C.2       3 UNK         0.4942 
     26 O          21.6176   -1.5334   -4.1074 O.2       3 UNK        -0.5208 
     27 CA         22.6156    0.1300   -2.7072 C.3       3 UNK         0.0250 
     28 CB         21.8612   -0.2768   -1.4291 C.3       3 UNK        -0.1990 
     29 N          23.9450    0.6264   -2.3411 N.am      3 UNK        -0.4232 
     30 C          24.6295    1.5400   -3.0450 C.2       2 UNK         0.4993 
     31 O          24.1617    2.1488   -4.0063 O.2       2 UNK        -0.5286 
     32 CA         26.0898    1.8056   -2.6361 C.3       2 UNK         0.0209 
     33 CB         26.1926    3.0931   -1.8032 C.3       2 UNK        -0.1931 
     34 N          26.7123    0.7008   -1.8966 N.am      2 UNK        -0.4546 
     35 C          26.9680   -0.5126   -2.4050 C.2       1 UNK         0.5154 
     36 O          26.7414   -0.8239   -3.5764 O.2       1 UNK        -0.5181 
     37 C          27.8664   -1.1707   -7.3753 C.2       5 UNK         0.5014 
     38 O          28.0620   -0.6565   -8.4763 O.2       5 UNK        -0.5248 
     39 N          28.1958   -0.5787   -6.2163 N.am      6 UNK        -0.4434 
     40 CA         29.0244    0.6328   -6.1145 C.3       6 UNK         0.0363 
     41 CB         29.5335    0.8002   -4.6746 C.3       6 UNK        -0.1936 
     42 C          28.3581    1.9206   -6.6345 C.2       6 UNK         0.5081 
     43 O          29.0241    2.9524   -6.7160 O.2       6 UNK        -0.5248 
     44 N          27.0755    1.8407   -7.0118 N.am      7 UNK        -0.4718 
     45 CA         26.3743    2.8650   -7.7845 C.3       7 UNK         0.0273 
     46 CB         24.8646    2.5827   -7.7257 C.3       7 UNK        -0.1935 
     47 C          26.8489    2.9475   -9.2509 C.2       7 UNK         0.5018 
     48 O          26.6518    3.9918   -9.8741 O.2       7 UNK        -0.5186 
     49 N          27.4412    1.8649   -9.7796 N.am      8 UNK        -0.4240 
     50 CA         27.9145    1.7590  -11.1635 C.3       8 UNK         0.0235 
     51 CB         26.9699    0.8344  -11.9500 C.3       8 UNK        -0.2000 
     52 C          29.3644    1.2564  -11.2651 C.2       8 UNK         0.4941 
     53 O          30.0796    1.6897  -12.1703 O.2       8 UNK        -0.5273 
     54 N          29.7751    0.3466  -10.3706 N.am      9 UNK        -0.4262 
     55 CA         31.1198   -0.2314  -10.3125 C.3       9 UNK         0.0264 
     56 CB         31.1000   -1.4550   -9.3790 C.3       9 UNK        -0.1955 
     57 C          32.1735    0.7811   -9.8370 C.2       9 UNK         0.5031 
     58 O          31.8391    1.7552   -9.1584 O.2       9 UNK        -0.5390 
     59 N          33.4433    0.4936  -10.1561 N.am      10 UNK        -0.4204 
     60 CA         34.6154    1.3135   -9.8222 C.3       10 UNK         0.0237 
     61 CB         35.8683    0.6835  -10.4530 C.3       10 UNK        -0.1985 
     62 C          34.8349    1.5502   -8.3154 C.2       10 UNK         0.4970 
     63 O          35.4510    2.5541   -7.9548 O.2       10 UNK        -0.4914 
     64 N          34.3229    0.6458   -7.4702 N.am      11 UNK        -0.4285 
     65 CA         34.2705    0.8082   -6.0109 C.3       11 UNK         0.1007 
     66 C          33.2064    1.8294   -5.5044 C.2       11 UNK         0.5703 
     67 N          32.3261    2.3589   -6.3473 N.am      11 UNK        -0.7361 
     68 O          33.1933    2.1609   -4.3214 O.2       11 UNK        -0.4986 
     69 C69        34.1848   -0.5607   -5.2853 C.3       12 UNK        -0.0947 
     70 S70        32.6693   -1.5154   -5.6362 S.3       12 UNK        -0.2240 
     71 C71        33.1686   -3.1432   -4.9921 C.3       12 UNK         0.0194 
     72 H72        23.5037   -3.4793   -1.0102 H         1 UNK         0.0906 
     73 H73        24.9038   -4.5364   -0.8187 H         1 UNK         0.0906 
     74 H74        24.1829   -3.7622    0.5946 H         1 UNK         0.0906 
     75 H75        26.8234   -3.5468   -1.4130 H         1 UNK         0.3140 
     76 H76        27.7750   -1.0797   -0.4931 H         1 UNK         0.1085 
     77 H77        29.5489   -1.3630   -2.2683 H         1 UNK         0.0836 
     78 H78        28.6498   -2.6915   -2.9467 H         1 UNK         0.0836 
     79 H79        30.2717   -5.5846   -1.1044 H         1 UNK         0.0731 
     80 H80        28.6783   -5.2359   -1.7290 H         1 UNK         0.0731 
     81 H81        31.9389   -3.5238   -2.5967 H         1 UNK         0.1312 
     82 H82        31.7021   -4.6508   -6.7217 H         1 UNK         0.1406 
     83 H83        28.7763   -6.0974   -3.9412 H         1 UNK         0.1631 
     84 H84        29.2318   -7.1992   -6.3056 H         1 UNK         0.0717 
     85 H85        30.0483   -6.1970   -7.4800 H         1 UNK         0.0717 
     86 H86        29.0649   -3.3344   -6.4140 H         1 UNK         0.0934 
     87 H87        29.0053   -3.5800   -8.1402 H         1 UNK         0.0934 
     88 H88        26.7172   -2.7391   -8.2534 H         1 UNK         0.0739 
     89 H89        26.4248   -3.5465   -5.6399 H         1 UNK         0.3093 
     90 H90        23.2290   -2.8347   -5.5553 H         1 UNK         0.0818 
     91 H91        23.8738   -4.1209   -3.5127 H         1 UNK         0.0819 
     92 H92        24.7933   -4.6576   -4.9005 H         1 UNK         0.0819 
     93 H93        25.5482   -3.6134   -3.6923 H         1 UNK         0.0819 
     94 H94        24.7101   -0.9856   -3.7700 H         1 UNK         0.3041 
     95 H95        22.0513    0.9335   -3.1854 H         1 UNK         0.0784 
     96 H96        20.8352   -0.5687   -1.6570 H         1 UNK         0.0793 
     97 H97        22.3345   -1.1220   -0.9295 H         1 UNK         0.0793 
     98 H98        21.8109    0.5480   -0.7182 H         1 UNK         0.0793 
     99 H99        24.4010    0.1554   -1.5640 H         1 UNK         0.3024 
    100 H100       26.6475    1.9533   -3.5631 H         1 UNK         0.1171 
    101 H101       25.6636    3.0032   -0.8535 H         1 UNK         0.0786 
    102 H102       25.7601    3.9399   -2.3383 H         1 UNK         0.0786 
    103 H103       27.2313    3.3454   -1.5885 H         1 UNK         0.0786 
    104 H104       26.8939    0.8642   -0.9161 H         1 UNK         0.2977 
    105 H105       27.8889   -0.9957   -5.3437 H         1 UNK         0.3127 
    106 H106       29.9013    0.4744   -6.7464 H         1 UNK         0.0770 
    107 H107       28.7264    1.0204   -3.9824 H         1 UNK         0.0814 
    108 H108       30.2399    1.6268   -4.6034 H         1 UNK         0.0814 
    109 H109       30.0523   -0.0939   -4.3295 H         1 UNK         0.0814 
    110 H110       26.5995    0.9558   -6.8938 H         1 UNK         0.2983 
    111 H111       26.5628    3.8364   -7.3220 H         1 UNK         0.0947 
    112 H112       24.3030    3.3371   -8.2785 H         1 UNK         0.0806 
    113 H113       24.4987    2.5956   -6.6990 H         1 UNK         0.0806 
    114 H114       24.6187    1.6105   -8.1555 H         1 UNK         0.0806 
    115 H115       27.5722    1.0471   -9.1910 H         1 UNK         0.3000 
    116 H116       27.8970    2.7420  -11.6391 H         1 UNK         0.0850 
    117 H117       27.2969    0.7289  -12.9854 H         1 UNK         0.0810 
    118 H118       25.9548    1.2314  -11.9697 H         1 UNK         0.0810 
    119 H119       26.9305   -0.1650  -11.5145 H         1 UNK         0.0810 
    120 H120       29.1226    0.0173   -9.6611 H         1 UNK         0.3040 
    121 H121       31.3865   -0.5620  -11.3186 H         1 UNK         0.0766 
    122 H122       32.0666   -1.9597   -9.3632 H         1 UNK         0.0812 
    123 H123       30.3616   -2.1874   -9.7051 H         1 UNK         0.0812 
    124 H124       30.8644   -1.1757   -8.3514 H         1 UNK         0.0812 
    125 H125       33.6235   -0.3376  -10.7014 H         1 UNK         0.3205 
    126 H126       34.4611    2.2941  -10.2772 H         1 UNK         0.0754 
    127 H127       36.7546    1.2861  -10.2481 H         1 UNK         0.0769 
    128 H128       35.7747    0.6102  -11.5367 H         1 UNK         0.0769 
    129 H129       36.0577   -0.3171  -10.0620 H         1 UNK         0.0769 
    130 H130       33.8212   -0.1448   -7.8440 H         1 UNK         0.2981 
    131 H131       35.2274    1.2410   -5.7131 H         1 UNK         0.0541 
    132 H132       32.3047    2.0972   -7.3286 H         1 UNK         0.3459 
    133 H133       31.6441    3.0149   -6.0025 H         1 UNK         0.3459 
    134 H134       34.2597   -0.4224   -4.2052 H         1 UNK         0.0612 
    135 H135       35.0463   -1.1693   -5.5651 H         1 UNK         0.0612 
    136 H136       33.7653   -3.0112   -4.0880 H         1 UNK         0.0624 
    137 H137       33.8134   -3.6379   -5.7199 H         1 UNK         0.0624 
@<TRIPOS>BOND
     1    1    2 1    
     2    1   72 1    
     3    1   73 1    
     4    1   74 1    
     5    2    3 2    
     6    2    4 am   BACKBONE|DICT|INTERRES
     7    4    5 1    
     8    4   75 1    
     9    5    6 1    
    10    5   35 1    
    11    5   76 1    
    12    6    7 1    
    13    6   77 1    
    14    6   78 1    
    15    7    8 1    
    16    8    9 1    
    17    8   79 1    
    18    8   80 1    
    19    9   10 ar   
    20    9   14 ar   
    21   10   11 ar   
    22   10   81 1    
    23   11   12 ar   
    24   11   71 1    
    25   12   13 ar   
    26   12   82 1    
    27   13   14 ar   
    28   13   15 1    
    29   14   83 1    
    30   15   16 1    
    31   15   84 1    
    32   15   85 1    
    33   16   17 1    
    34   17   18 1    
    35   17   86 1    
    36   17   87 1    
    37   18   19 1    
    38   18   37 1    
    39   18   88 1    
    40   19   20 am   BACKBONE|DICT|INTERRES
    41   19   89 1    
    42   20   21 2    
    43   20   22 1    
    44   22   23 1    
    45   22   24 1    
    46   22   90 1    
    47   23   91 1    
    48   23   92 1    
    49   23   93 1    
    50   24   25 am   BACKBONE|DICT|INTERRES
    51   24   94 1    
    52   25   26 2    
    53   25   27 1    
    54   27   28 1    
    55   27   29 1    
    56   27   95 1    
    57   28   96 1    
    58   28   97 1    
    59   28   98 1    
    60   29   30 am   BACKBONE|DICT|INTERRES
    61   29   99 1    
    62   30   31 2    
    63   30   32 1    
    64   32   33 1    
    65   32   34 1    
    66   32  100 1    
    67   33  101 1    
    68   33  102 1    
    69   33  103 1    
    70   34   35 am   BACKBONE|DICT|INTERRES
    71   34  104 1    
    72   35   36 2    
    73   37   38 2    
    74   37   39 am   BACKBONE|DICT|INTERRES
    75   39   40 1    
    76   39  105 1    
    77   40   41 1    
    78   40   42 1    
    79   40  106 1    
    80   41  107 1    
    81   41  108 1    
    82   41  109 1    
    83   42   43 2    
    84   42   44 am   BACKBONE|DICT|INTERRES
    85   44   45 1    
    86   44  110 1    
    87   45   46 1    
    88   45   47 1    
    89   45  111 1    
    90   46  112 1    
    91   46  113 1    
    92   46  114 1    
    93   47   48 2    
    94   47   49 am   BACKBONE|DICT|INTERRES
    95   49   50 1    
    96   49  115 1    
    97   50   51 1    
    98   50   52 1    
    99   50  116 1    
   100   51  117 1    
   101   51  118 1    
   102   51  119 1    
   103   52   53 2    
   104   52   54 am   BACKBONE|DICT|INTERRES
   105   54   55 1    
   106   54  120 1    
   107   55   56 1    
   108   55   57 1    
   109   55  121 1    
   110   56  122 1    
   111   56  123 1    
   112   56  124 1    
   113   57   58 2    
   114   57   59 am   BACKBONE|DICT|INTERRES
   115   59   60 1    
   116   59  125 1    
   117   60   61 1    
   118   60   62 1    
   119   60  126 1    
   120   61  127 1    
   121   61  128 1    
   122   61  129 1    
   123   62   63 2    
   124   62   64 am   BACKBONE|DICT|INTERRES
   125   64   65 1    
   126   64  130 1    
   127   65   66 1    
   128   65   69 1    
   129   65  131 1    
   130   66   67 am   BACKBONE|DICT|INTERRES
   131   66   68 2    
   132   67  132 1    
   133   67  133 1    
   134   69   70 1    
   135   69  134 1    
   136   69  135 1    
   137   70   71 1    
   138   71  136 1    
   139   71  137 1    
@<TRIPOS>SUBSTRUCTURE
     1 UNK         1 GROUP             0       ****    0 ROOT    
