@<TRIPOS>MOLECULE
3R137
137   139    1
SMALL
USER_CHARGES


@<TRIPOS>ATOM
      1 CA         25.4607   -6.5110    1.6507 C.3       0 UNK        -0.2020 
      2 C          25.9457   -5.3413    0.8066 C.2       0 UNK         0.4855 
      3 O          25.4993   -5.1882   -0.3305 O.2       0 UNK        -0.5197 
      4 N          26.8615   -4.5298    1.3561 N.am      1 UNK        -0.4892 
      5 CA         27.4275   -3.3079    0.7638 C.3       1 UNK         0.0835 
      6 C6         28.0750   -3.5548   -0.6339 C.3       12 UNK        -0.0855 
      7 S7         29.5256   -2.4838   -0.9297 S.3       12 UNK        -0.2931 
      8 C8         30.8024   -3.6893   -1.4143 C.3       12 UNK         0.0378 
      9 C9         30.9224   -3.8076   -2.9278 C.ar      12 UNK        -0.0802 
     10 C10        32.0240   -3.2427   -3.5803 C.ar      12 UNK        -0.0944 
     11 C11        32.1717   -3.3693   -4.9636 C.ar      12 UNK        -0.0787 
     12 C12        31.2131   -4.0755   -5.6920 C.ar      12 UNK        -0.0862 
     13 C13        30.0768   -4.5947   -5.0648 C.ar      12 UNK        -0.0733 
     14 C14        29.9451   -4.4765   -3.6765 C.ar      12 UNK        -0.0832 
     15 C15        28.9836   -5.2418   -5.9102 C.3       12 UNK         0.0240 
     16 S16        27.6153   -4.0937   -6.3203 S.3       12 UNK        -0.2522 
     17 C17        28.4858   -2.5109   -6.5884 C.3       12 UNK        -0.0967 
     18 CA         27.7491   -1.4543   -7.4466 C.3       5 UNK         0.0660 
     19 N          26.3258   -1.3319   -7.1099 N.am      5 UNK        -0.4015 
     20 C          25.4621   -0.4013   -7.5496 C.2       4 UNK         0.4946 
     21 O          25.7382    0.4469   -8.3999 O.2       4 UNK        -0.5353 
     22 CA         24.0757   -0.3530   -6.8807 C.3       4 UNK         0.0277 
     23 CB         23.0240   -0.9970   -7.7979 C.3       4 UNK        -0.1981 
     24 N          24.0058   -0.9717   -5.5488 N.am      4 UNK        -0.4209 
     25 C          24.7828   -0.6741   -4.4958 C.2       3 UNK         0.4942 
     26 O          25.6839    0.1703   -4.5222 O.2       3 UNK        -0.5208 
     27 CA         24.5528   -1.5282   -3.2400 C.3       3 UNK         0.0250 
     28 CB         24.9332   -2.9976   -3.5033 C.3       3 UNK        -0.1990 
     29 N          25.3621   -1.0510   -2.1240 N.am      3 UNK        -0.4232 
     30 C          25.0127   -0.1106   -1.2381 C.2       2 UNK         0.4993 
     31 O          23.9304    0.4794   -1.2508 O.2       2 UNK        -0.5286 
     32 CA         26.0609    0.1976   -0.1467 C.3       2 UNK         0.0209 
     33 CB         25.4570    0.8714    1.1047 C.3       2 UNK        -0.1931 
     34 N          26.8578   -0.9897    0.2081 N.am      2 UNK        -0.4546 
     35 C          26.4138   -2.1369    0.7470 C.2       1 UNK         0.5154 
     36 O          25.2743   -2.2852    1.1971 O.2       1 UNK        -0.5181 
     37 C          28.5249   -0.1280   -7.3091 C.2       5 UNK         0.5014 
     38 O          29.4479    0.1147   -8.0883 O.2       5 UNK        -0.5248 
     39 N          28.1271    0.7105   -6.3379 N.am      6 UNK        -0.4434 
     40 CA         28.6933    2.0355   -6.0884 C.3       6 UNK         0.0363 
     41 CB         27.9785    2.6822   -4.8929 C.3       6 UNK        -0.1936 
     42 C          28.6564    2.9672   -7.3126 C.2       6 UNK         0.5081 
     43 O          29.5823    3.7604   -7.4854 O.2       6 UNK        -0.5248 
     44 N          27.6192    2.8202   -8.1476 N.am      7 UNK        -0.4718 
     45 CA         27.4792    3.5010   -9.4313 C.3       7 UNK         0.0273 
     46 CB         26.0444    4.0368   -9.5683 C.3       7 UNK        -0.1935 
     47 C          27.8154    2.5557  -10.5937 C.2       7 UNK         0.5018 
     48 O          28.5806    2.9423  -11.4761 O.2       7 UNK        -0.5186 
     49 N          27.2466    1.3401  -10.5804 N.am      8 UNK        -0.4240 
     50 CA         27.3022    0.3751  -11.6845 C.3       8 UNK         0.0235 
     51 CB         26.3107   -0.7693  -11.4178 C.3       8 UNK        -0.2000 
     52 C          28.7042   -0.1836  -11.9762 C.2       8 UNK         0.4941 
     53 O          29.0308   -0.3951  -13.1446 O.2       8 UNK        -0.5273 
     54 N          29.5038   -0.4008  -10.9250 N.am      9 UNK        -0.4262 
     55 CA         30.9001   -0.8391  -11.0081 C.3       9 UNK         0.0264 
     56 CB         31.0768   -2.0957  -10.1363 C.3       9 UNK        -0.1955 
     57 C          31.8706    0.2804  -10.5855 C.2       9 UNK         0.5031 
     58 O          33.0782    0.0410  -10.5450 O.2       9 UNK        -0.5390 
     59 N          31.3324    1.4731  -10.2817 N.am      10 UNK        -0.4204 
     60 CA         32.0155    2.6769   -9.7963 C.3       10 UNK         0.0237 
     61 CB         32.9310    3.2646  -10.8916 C.3       10 UNK        -0.1985 
     62 C          32.7410    2.4749   -8.4492 C.2       10 UNK         0.4970 
     63 O          33.7679    3.1138   -8.2112 O.2       10 UNK        -0.4914 
     64 N          32.2018    1.5983   -7.5902 N.am      11 UNK        -0.4285 
     65 CA         32.7669    1.2749   -6.2685 C.3       11 UNK         0.1007 
     66 C          32.5936    2.3852   -5.1889 C.2       11 UNK         0.5703 
     67 N          31.8526    3.4603   -5.4347 N.am      11 UNK        -0.7361 
     68 O          33.1616    2.2760   -4.1050 O.2       11 UNK        -0.4986 
     69 C69        32.2780   -0.1085   -5.7617 C.3       12 UNK        -0.0947 
     70 S70        32.8202   -1.4572   -6.8648 S.3       12 UNK        -0.2240 
     71 C71        33.3551   -2.7368   -5.6823 C.3       12 UNK         0.0194 
     72 H72        25.6639   -7.4519    1.1400 H         1 UNK         0.0906 
     73 H73        25.9472   -6.5426    2.6254 H         1 UNK         0.0906 
     74 H74        24.3854   -6.4357    1.8111 H         1 UNK         0.0906 
     75 H75        27.1561   -4.7109    2.3062 H         1 UNK         0.3140 
     76 H76        28.2134   -3.0086    1.4597 H         1 UNK         0.1085 
     77 H77        28.3917   -4.5955   -0.7095 H         1 UNK         0.0836 
     78 H78        27.3541   -3.4227   -1.4429 H         1 UNK         0.0836 
     79 H79        30.6090   -4.6690   -0.9762 H         1 UNK         0.0731 
     80 H80        31.7522   -3.3624   -0.9881 H         1 UNK         0.0731 
     81 H81        32.7691   -2.7045   -3.0104 H         1 UNK         0.1312 
     82 H82        31.3266   -4.1686   -6.7637 H         1 UNK         0.1406 
     83 H83        29.0743   -4.8863   -3.1834 H         1 UNK         0.1631 
     84 H84        28.5747   -6.1073   -5.3870 H         1 UNK         0.0717 
     85 H85        29.4074   -5.6244   -6.8400 H         1 UNK         0.0717 
     86 H86        28.7244   -2.1180   -5.5965 H         1 UNK         0.0934 
     87 H87        29.4399   -2.7193   -7.0726 H         1 UNK         0.0934 
     88 H88        27.7998   -1.7621   -8.4920 H         1 UNK         0.0739 
     89 H89        25.9924   -1.9944   -6.4256 H         1 UNK         0.3093 
     90 H90        23.8233    0.7021   -6.7576 H         1 UNK         0.0818 
     91 H91        22.0170   -0.8700   -7.4001 H         1 UNK         0.0819 
     92 H92        23.0372   -0.5396   -8.7886 H         1 UNK         0.0819 
     93 H93        23.2026   -2.0649   -7.9305 H         1 UNK         0.0819 
     94 H94        23.3002   -1.6851   -5.4313 H         1 UNK         0.3041 
     95 H95        23.4954   -1.4742   -2.9719 H         1 UNK         0.0784 
     96 H96        24.3174   -3.4403   -4.2868 H         1 UNK         0.0793 
     97 H97        25.9752   -3.0982   -3.8107 H         1 UNK         0.0793 
     98 H98        24.7926   -3.6064   -2.6094 H         1 UNK         0.0793 
     99 H99        26.2941   -1.4303   -2.0605 H         1 UNK         0.3024 
    100 H100       26.7545    0.9100   -0.5971 H         1 UNK         0.1171 
    101 H101       25.0027    1.8295    0.8493 H         1 UNK         0.0786 
    102 H102       24.6800    0.2595    1.5634 H         1 UNK         0.0786 
    103 H103       26.2202    1.0666    1.8579 H         1 UNK         0.0786 
    104 H104       27.8194   -0.9796   -0.1125 H         1 UNK         0.2977 
    105 H105       27.3459    0.4388   -5.7477 H         1 UNK         0.3127 
    106 H106       29.7362    1.8813   -5.8190 H         1 UNK         0.0770 
    107 H107       26.9147    2.8241   -5.0884 H         1 UNK         0.0814 
    108 H108       28.4047    3.6604   -4.6656 H         1 UNK         0.0814 
    109 H109       28.0739    2.0707   -3.9954 H         1 UNK         0.0814 
    110 H110       26.9340    2.1015   -7.9412 H         1 UNK         0.2983 
    111 H111       28.1628    4.3516   -9.4857 H         1 UNK         0.0947 
    112 H112       25.9047    4.5394  -10.5264 H         1 UNK         0.0806 
    113 H113       25.8194    4.7626   -8.7867 H         1 UNK         0.0806 
    114 H114       25.3030    3.2389   -9.5055 H         1 UNK         0.0806 
    115 H115       26.6450    1.0878   -9.7968 H         1 UNK         0.3000 
    116 H116       26.9728    0.8985  -12.5848 H         1 UNK         0.0850 
    117 H117       26.2940   -1.4740  -12.2503 H         1 UNK         0.0810 
    118 H118       25.2952   -0.3931  -11.2919 H         1 UNK         0.0810 
    119 H119       26.5711   -1.3309  -10.5209 H         1 UNK         0.0810 
    120 H120       29.1710   -0.1915   -9.9879 H         1 UNK         0.3040 
    121 H121       31.1593   -1.1040  -12.0351 H         1 UNK         0.0766 
    122 H122       30.8505   -1.8966   -9.0894 H         1 UNK         0.0812 
    123 H123       32.1019   -2.4656  -10.1813 H         1 UNK         0.0812 
    124 H124       30.4263   -2.9038  -10.4706 H         1 UNK         0.0812 
    125 H125       30.3311    1.5605  -10.3838 H         1 UNK         0.3205 
    126 H126       31.2297    3.4087   -9.6049 H         1 UNK         0.0754 
    127 H127       33.3277    4.2356  -10.5924 H         1 UNK         0.0769 
    128 H128       32.3867    3.4133  -11.8243 H         1 UNK         0.0769 
    129 H129       33.7822    2.6153  -11.0990 H         1 UNK         0.0769 
    130 H130       31.3595    1.1000   -7.8529 H         1 UNK         0.2981 
    131 H131       33.8474    1.1929   -6.4015 H         1 UNK         0.0541 
    132 H132       31.3594    3.5684   -6.3116 H         1 UNK         0.3459 
    133 H133       31.7723    4.1698   -4.7244 H         1 UNK         0.3459 
    134 H134       31.1904   -0.1353   -5.6849 H         1 UNK         0.0612 
    135 H135       32.6598   -0.3075   -4.7588 H         1 UNK         0.0612 
    136 H136       33.8943   -3.5130   -6.2268 H         1 UNK         0.0624 
    137 H137       34.0657   -2.3054   -4.9756 H         1 UNK         0.0624 
@<TRIPOS>BOND
     1    1    2 1    
     2    1   72 1    
     3    1   73 1    
     4    1   74 1    
     5    2    3 2    
     6    2    4 am   BACKBONE|DICT|INTERRES
     7    4    5 1    
     8    4   75 1    
     9    5    6 1    
    10    5   35 1    
    11    5   76 1    
    12    6    7 1    
    13    6   77 1    
    14    6   78 1    
    15    7    8 1    
    16    8    9 1    
    17    8   79 1    
    18    8   80 1    
    19    9   10 ar   
    20    9   14 ar   
    21   10   11 ar   
    22   10   81 1    
    23   11   12 ar   
    24   11   71 1    
    25   12   13 ar   
    26   12   82 1    
    27   13   14 ar   
    28   13   15 1    
    29   14   83 1    
    30   15   16 1    
    31   15   84 1    
    32   15   85 1    
    33   16   17 1    
    34   17   18 1    
    35   17   86 1    
    36   17   87 1    
    37   18   19 1    
    38   18   37 1    
    39   18   88 1    
    40   19   20 am   BACKBONE|DICT|INTERRES
    41   19   89 1    
    42   20   21 2    
    43   20   22 1    
    44   22   23 1    
    45   22   24 1    
    46   22   90 1    
    47   23   91 1    
    48   23   92 1    
    49   23   93 1    
    50   24   25 am   BACKBONE|DICT|INTERRES
    51   24   94 1    
    52   25   26 2    
    53   25   27 1    
    54   27   28 1    
    55   27   29 1    
    56   27   95 1    
    57   28   96 1    
    58   28   97 1    
    59   28   98 1    
    60   29   30 am   BACKBONE|DICT|INTERRES
    61   29   99 1    
    62   30   31 2    
    63   30   32 1    
    64   32   33 1    
    65   32   34 1    
    66   32  100 1    
    67   33  101 1    
    68   33  102 1    
    69   33  103 1    
    70   34   35 am   BACKBONE|DICT|INTERRES
    71   34  104 1    
    72   35   36 2    
    73   37   38 2    
    74   37   39 am   BACKBONE|DICT|INTERRES
    75   39   40 1    
    76   39  105 1    
    77   40   41 1    
    78   40   42 1    
    79   40  106 1    
    80   41  107 1    
    81   41  108 1    
    82   41  109 1    
    83   42   43 2    
    84   42   44 am   BACKBONE|DICT|INTERRES
    85   44   45 1    
    86   44  110 1    
    87   45   46 1    
    88   45   47 1    
    89   45  111 1    
    90   46  112 1    
    91   46  113 1    
    92   46  114 1    
    93   47   48 2    
    94   47   49 am   BACKBONE|DICT|INTERRES
    95   49   50 1    
    96   49  115 1    
    97   50   51 1    
    98   50   52 1    
    99   50  116 1    
   100   51  117 1    
   101   51  118 1    
   102   51  119 1    
   103   52   53 2    
   104   52   54 am   BACKBONE|DICT|INTERRES
   105   54   55 1    
   106   54  120 1    
   107   55   56 1    
   108   55   57 1    
   109   55  121 1    
   110   56  122 1    
   111   56  123 1    
   112   56  124 1    
   113   57   58 2    
   114   57   59 am   BACKBONE|DICT|INTERRES
   115   59   60 1    
   116   59  125 1    
   117   60   61 1    
   118   60   62 1    
   119   60  126 1    
   120   61  127 1    
   121   61  128 1    
   122   61  129 1    
   123   62   63 2    
   124   62   64 am   BACKBONE|DICT|INTERRES
   125   64   65 1    
   126   64  130 1    
   127   65   66 1    
   128   65   69 1    
   129   65  131 1    
   130   66   67 am   BACKBONE|DICT|INTERRES
   131   66   68 2    
   132   67  132 1    
   133   67  133 1    
   134   69   70 1    
   135   69  134 1    
   136   69  135 1    
   137   70   71 1    
   138   71  136 1    
   139   71  137 1    
@<TRIPOS>SUBSTRUCTURE
     1 UNK         1 GROUP             0       ****    0 ROOT    
