@<TRIPOS>MOLECULE
3R137
137   139    1
SMALL
USER_CHARGES


@<TRIPOS>ATOM
      1 CA         29.5710   -5.2713   -0.5393 C.3       0 UNK        -0.2020 
      2 C          28.3953   -4.3898   -0.1456 C.2       0 UNK         0.4855 
      3 O          27.4741   -4.8584    0.5228 O.2       0 UNK        -0.5197 
      4 N          28.4262   -3.1138   -0.5502 N.am      1 UNK        -0.4892 
      5 CA         27.4204   -2.0912   -0.2270 C.3       1 UNK         0.0835 
      6 C6         27.8976   -0.6513   -0.5661 C.3       12 UNK        -0.0855 
      7 S7         29.5926   -0.2593    0.0024 S.3       12 UNK        -0.2931 
      8 C8         30.4278    0.2208   -1.5503 C.3       12 UNK         0.0378 
      9 C9         30.9902   -0.9753   -2.3097 C.ar      12 UNK        -0.0802 
     10 C10        32.3725   -1.1458   -2.4474 C.ar      12 UNK        -0.0944 
     11 C11        32.8841   -2.2193   -3.1846 C.ar      12 UNK        -0.0787 
     12 C12        32.0075   -3.1553   -3.7398 C.ar      12 UNK        -0.0862 
     13 C13        30.6270   -2.9975   -3.6116 C.ar      12 UNK        -0.0733 
     14 C14        30.1292   -1.8926   -2.9158 C.ar      12 UNK        -0.0832 
     15 C15        29.6871   -4.0180   -4.2437 C.3       12 UNK         0.0240 
     16 S16        28.2482   -3.2596   -5.0581 S.3       12 UNK        -0.2522 
     17 C17        29.0648   -2.2519   -6.3390 C.3       12 UNK        -0.0967 
     18 CA         28.2557   -1.0114   -6.7793 C.3       5 UNK         0.0660 
     19 N          26.8614   -1.3266   -7.0909 N.am      5 UNK        -0.4015 
     20 C          26.1356   -0.6672   -7.9992 C.2       4 UNK         0.4946 
     21 O          26.5741    0.2704   -8.6656 O.2       4 UNK        -0.5353 
     22 CA         24.6810   -1.1245   -8.1884 C.3       4 UNK         0.0277 
     23 CB         24.6201   -2.4252   -9.0056 C.3       4 UNK        -0.1981 
     24 N          23.9677   -1.3003   -6.9198 N.am      4 UNK        -0.4209 
     25 C          23.6484   -0.2912   -6.0977 C.2       3 UNK         0.4942 
     26 O          23.9404    0.8838   -6.3145 O.2       3 UNK        -0.5208 
     27 CA         22.8860   -0.6432   -4.8079 C.3       3 UNK         0.0250 
     28 CB         21.3784   -0.7482   -5.0902 C.3       3 UNK        -0.1990 
     29 N          23.3379   -1.8526   -4.1070 N.am      3 UNK        -0.4232 
     30 C          24.5965   -2.1056   -3.7231 C.2       2 UNK         0.4993 
     31 O          25.5689   -1.4357   -4.0749 O.2       2 UNK        -0.5286 
     32 CA         24.8059   -3.3172   -2.8002 C.3       2 UNK         0.0209 
     33 CB         24.9500   -4.6125   -3.6153 C.3       2 UNK        -0.1931 
     34 N          25.9985   -3.1267   -1.9696 N.am      2 UNK        -0.4546 
     35 C          26.0408   -2.3464   -0.8786 C.2       1 UNK         0.5154 
     36 O          25.0424   -1.8145   -0.3893 O.2       1 UNK        -0.5181 
     37 C          28.3824    0.2055   -5.8383 C.2       5 UNK         0.5014 
     38 O          29.3606    0.9423   -5.9528 O.2       5 UNK        -0.5248 
     39 N          27.3633    0.4831   -5.0088 N.am      6 UNK        -0.4434 
     40 CA         27.2034    1.7612   -4.3016 C.3       6 UNK         0.0363 
     41 CB         26.0138    1.6832   -3.3319 C.3       6 UNK        -0.1936 
     42 C          27.0326    2.9528   -5.2660 C.2       6 UNK         0.5081 
     43 O          27.5606    4.0311   -4.9961 O.2       6 UNK        -0.5248 
     44 N          26.3465    2.7238   -6.3955 N.am      7 UNK        -0.4718 
     45 CA         26.2213    3.6560   -7.5217 C.3       7 UNK         0.0273 
     46 CB         24.9111    3.3600   -8.2725 C.3       7 UNK        -0.1935 
     47 C          27.4319    3.6317   -8.4813 C.2       7 UNK         0.5018 
     48 O          27.3929    4.3166   -9.5044 O.2       7 UNK        -0.5186 
     49 N          28.4801    2.8675   -8.1395 N.am      8 UNK        -0.4240 
     50 CA         29.7640    2.7354   -8.8325 C.3       8 UNK         0.0235 
     51 CB         30.5226    4.0804   -8.8606 C.3       8 UNK        -0.2000 
     52 C          29.6833    2.0566  -10.2133 C.2       8 UNK         0.4941 
     53 O          30.5014    2.3644  -11.0825 O.2       8 UNK        -0.5273 
     54 N          28.7548    1.1012  -10.3931 N.am      9 UNK        -0.4262 
     55 CA         28.7419    0.1975  -11.5561 C.3       9 UNK         0.0264 
     56 CB         27.4017   -0.5515  -11.6240 C.3       9 UNK        -0.1955 
     57 C          29.9148   -0.8060  -11.5399 C.2       9 UNK         0.5031 
     58 O          30.3272   -1.2825  -12.5981 O.2       9 UNK        -0.5390 
     59 N          30.4361   -1.0834  -10.3415 N.am      10 UNK        -0.4204 
     60 CA         31.6647   -1.8079  -10.0457 C.3       10 UNK         0.0237 
     61 CB         31.3633   -3.3066   -9.8731 C.3       10 UNK        -0.1985 
     62 C          32.2285   -1.1905   -8.7584 C.2       10 UNK         0.4970 
     63 O          31.4706   -0.5486   -8.0259 O.2       10 UNK        -0.4914 
     64 N          33.5284   -1.3885   -8.5039 N.am      11 UNK        -0.4285 
     65 CA         34.2692   -0.7734   -7.3867 C.3       11 UNK         0.1007 
     66 C          34.3553    0.7826   -7.5181 C.2       11 UNK         0.5703 
     67 N          34.5255    1.5175   -6.4280 N.am      11 UNK        -0.7361 
     68 O          34.3237    1.3307   -8.6191 O.2       11 UNK        -0.4986 
     69 C69        33.7692   -1.2965   -6.0041 C.3       12 UNK        -0.0947 
     70 S70        34.9960   -1.1547   -4.6544 S.3       12 UNK        -0.2240 
     71 C71        34.3812   -2.3551   -3.4244 C.3       12 UNK         0.0194 
     72 H72        29.2383   -6.0656   -1.2068 H         1 UNK         0.0906 
     73 H73        30.3551   -4.7064   -1.0436 H         1 UNK         0.0906 
     74 H74        30.0068   -5.7320    0.3469 H         1 UNK         0.0906 
     75 H75        29.2427   -2.7725   -1.0388 H         1 UNK         0.3140 
     76 H76        27.2633   -2.1388    0.8531 H         1 UNK         0.1085 
     77 H77        27.2268    0.0726   -0.0987 H         1 UNK         0.0836 
     78 H78        27.8181   -0.4565   -1.6356 H         1 UNK         0.0836 
     79 H79        31.2316    0.9149   -1.3000 H         1 UNK         0.0731 
     80 H80        29.7441    0.7782   -2.1920 H         1 UNK         0.0731 
     81 H81        33.0529   -0.4260   -2.0131 H         1 UNK         0.1312 
     82 H82        32.4020   -3.9919   -4.3003 H         1 UNK         0.1406 
     83 H83        29.0623   -1.7444   -2.8618 H         1 UNK         0.1631 
     84 H84        29.3324   -4.7004   -3.4714 H         1 UNK         0.0717 
     85 H85        30.2158   -4.6278   -4.9780 H         1 UNK         0.0717 
     86 H86        30.0651   -1.9528   -6.0201 H         1 UNK         0.0934 
     87 H87        29.2208   -2.9000   -7.2019 H         1 UNK         0.0934 
     88 H88        28.7240   -0.6857   -7.7105 H         1 UNK         0.0739 
     89 H89        26.4347   -2.0554   -6.5361 H         1 UNK         0.3093 
     90 H90        24.1670   -0.3456   -8.7563 H         1 UNK         0.0818 
     91 H91        23.5899   -2.7097   -9.2202 H         1 UNK         0.0819 
     92 H92        25.1259   -2.3069   -9.9648 H         1 UNK         0.0819 
     93 H93        25.0967   -3.2574   -8.4859 H         1 UNK         0.0819 
     94 H94        23.6948   -2.2377   -6.6628 H         1 UNK         0.3041 
     95 H95        23.0361    0.1890   -4.1175 H         1 UNK         0.0784 
     96 H96        21.0119    0.1470   -5.5952 H         1 UNK         0.0793 
     97 H97        21.1444   -1.6011   -5.7286 H         1 UNK         0.0793 
     98 H98        20.8068   -0.8517   -4.1676 H         1 UNK         0.0793 
     99 H99        22.6090   -2.4788   -3.7959 H         1 UNK         0.3024 
    100 H100       23.9364   -3.4123   -2.1453 H         1 UNK         0.1171 
    101 H101       24.0485   -4.8119   -4.1959 H         1 UNK         0.0786 
    102 H102       25.7816   -4.5643   -4.3172 H         1 UNK         0.0786 
    103 H103       25.1112   -5.4728   -2.9654 H         1 UNK         0.0786 
    104 H104       26.8674   -3.4889   -2.3328 H         1 UNK         0.2977 
    105 H105       26.6237   -0.2073   -4.8775 H         1 UNK         0.3127 
    106 H106       28.1098    1.9330   -3.7179 H         1 UNK         0.0770 
    107 H107       25.0731    1.5389   -3.8626 H         1 UNK         0.0814 
    108 H108       25.9229    2.6032   -2.7531 H         1 UNK         0.0814 
    109 H109       26.1235    0.8637   -2.6232 H         1 UNK         0.0814 
    110 H110       25.8848    1.8279   -6.5089 H         1 UNK         0.2983 
    111 H111       26.1567    4.6717   -7.1258 H         1 UNK         0.0947 
    112 H112       24.9163    2.3641   -8.7159 H         1 UNK         0.0806 
    113 H113       24.7474    4.0755   -9.0792 H         1 UNK         0.0806 
    114 H114       24.0505    3.4233   -7.6064 H         1 UNK         0.0806 
    115 H115       28.4092    2.3343   -7.2811 H         1 UNK         0.3000 
    116 H116       30.3554    2.0554   -8.2174 H         1 UNK         0.0850 
    117 H117       31.5449    3.9448   -9.2163 H         1 UNK         0.0810 
    118 H118       30.5852    4.5212   -7.8657 H         1 UNK         0.0810 
    119 H119       30.0427    4.8036   -9.5206 H         1 UNK         0.0810 
    120 H120       28.0565    0.9287   -9.6715 H         1 UNK         0.3040 
    121 H121       28.8363    0.8053  -12.4585 H         1 UNK         0.0766 
    122 H122       27.3269   -1.1291  -12.5462 H         1 UNK         0.0812 
    123 H123       26.5566    0.1370  -11.6013 H         1 UNK         0.0812 
    124 H124       27.2900   -1.2509  -10.7955 H         1 UNK         0.0812 
    125 H125       30.0737   -0.5901   -9.5349 H         1 UNK         0.3205 
    126 H126       32.3828   -1.6576  -10.8547 H         1 UNK         0.0754 
    127 H127       32.2725   -3.8670   -9.6522 H         1 UNK         0.0769 
    128 H128       30.9348   -3.7300  -10.7818 H         1 UNK         0.0769 
    129 H129       30.6617   -3.4867   -9.0585 H         1 UNK         0.0769 
    130 H130       34.0860   -1.9069   -9.1670 H         1 UNK         0.2981 
    131 H131       35.2947   -1.1206   -7.5156 H         1 UNK         0.0541 
    132 H132       34.6016    2.5187   -6.5090 H         1 UNK         0.3459 
    133 H133       34.5848    1.0705   -5.5249 H         1 UNK         0.3459 
    134 H134       32.8501   -0.7885   -5.7054 H         1 UNK         0.0612 
    135 H135       33.5131   -2.3531   -6.0933 H         1 UNK         0.0612 
    136 H136       34.6270   -3.3625   -3.7638 H         1 UNK         0.0624 
    137 H137       34.9175   -2.2086   -2.4858 H         1 UNK         0.0624 
@<TRIPOS>BOND
     1    1    2 1    
     2    1   72 1    
     3    1   73 1    
     4    1   74 1    
     5    2    3 2    
     6    2    4 am   BACKBONE|DICT|INTERRES
     7    4    5 1    
     8    4   75 1    
     9    5    6 1    
    10    5   35 1    
    11    5   76 1    
    12    6    7 1    
    13    6   77 1    
    14    6   78 1    
    15    7    8 1    
    16    8    9 1    
    17    8   79 1    
    18    8   80 1    
    19    9   10 ar   
    20    9   14 ar   
    21   10   11 ar   
    22   10   81 1    
    23   11   12 ar   
    24   11   71 1    
    25   12   13 ar   
    26   12   82 1    
    27   13   14 ar   
    28   13   15 1    
    29   14   83 1    
    30   15   16 1    
    31   15   84 1    
    32   15   85 1    
    33   16   17 1    
    34   17   18 1    
    35   17   86 1    
    36   17   87 1    
    37   18   19 1    
    38   18   37 1    
    39   18   88 1    
    40   19   20 am   BACKBONE|DICT|INTERRES
    41   19   89 1    
    42   20   21 2    
    43   20   22 1    
    44   22   23 1    
    45   22   24 1    
    46   22   90 1    
    47   23   91 1    
    48   23   92 1    
    49   23   93 1    
    50   24   25 am   BACKBONE|DICT|INTERRES
    51   24   94 1    
    52   25   26 2    
    53   25   27 1    
    54   27   28 1    
    55   27   29 1    
    56   27   95 1    
    57   28   96 1    
    58   28   97 1    
    59   28   98 1    
    60   29   30 am   BACKBONE|DICT|INTERRES
    61   29   99 1    
    62   30   31 2    
    63   30   32 1    
    64   32   33 1    
    65   32   34 1    
    66   32  100 1    
    67   33  101 1    
    68   33  102 1    
    69   33  103 1    
    70   34   35 am   BACKBONE|DICT|INTERRES
    71   34  104 1    
    72   35   36 2    
    73   37   38 2    
    74   37   39 am   BACKBONE|DICT|INTERRES
    75   39   40 1    
    76   39  105 1    
    77   40   41 1    
    78   40   42 1    
    79   40  106 1    
    80   41  107 1    
    81   41  108 1    
    82   41  109 1    
    83   42   43 2    
    84   42   44 am   BACKBONE|DICT|INTERRES
    85   44   45 1    
    86   44  110 1    
    87   45   46 1    
    88   45   47 1    
    89   45  111 1    
    90   46  112 1    
    91   46  113 1    
    92   46  114 1    
    93   47   48 2    
    94   47   49 am   BACKBONE|DICT|INTERRES
    95   49   50 1    
    96   49  115 1    
    97   50   51 1    
    98   50   52 1    
    99   50  116 1    
   100   51  117 1    
   101   51  118 1    
   102   51  119 1    
   103   52   53 2    
   104   52   54 am   BACKBONE|DICT|INTERRES
   105   54   55 1    
   106   54  120 1    
   107   55   56 1    
   108   55   57 1    
   109   55  121 1    
   110   56  122 1    
   111   56  123 1    
   112   56  124 1    
   113   57   58 2    
   114   57   59 am   BACKBONE|DICT|INTERRES
   115   59   60 1    
   116   59  125 1    
   117   60   61 1    
   118   60   62 1    
   119   60  126 1    
   120   61  127 1    
   121   61  128 1    
   122   61  129 1    
   123   62   63 2    
   124   62   64 am   BACKBONE|DICT|INTERRES
   125   64   65 1    
   126   64  130 1    
   127   65   66 1    
   128   65   69 1    
   129   65  131 1    
   130   66   67 am   BACKBONE|DICT|INTERRES
   131   66   68 2    
   132   67  132 1    
   133   67  133 1    
   134   69   70 1    
   135   69  134 1    
   136   69  135 1    
   137   70   71 1    
   138   71  136 1    
   139   71  137 1    
@<TRIPOS>SUBSTRUCTURE
     1 UNK         1 GROUP             0       ****    0 ROOT    
