@<TRIPOS>MOLECULE
3R137
137   139    1
SMALL
USER_CHARGES


@<TRIPOS>ATOM
      1 CA         26.3806    0.6210    3.0097 C.3       0 UNK        -0.2020 
      2 C          26.0999    0.6637    1.5153 C.2       0 UNK         0.4855 
      3 O          25.1550    1.3271    1.0880 O.2       0 UNK        -0.5197 
      4 N          26.9140   -0.0391    0.7170 N.am      1 UNK        -0.4892 
      5 CA         26.7928   -0.1413   -0.7437 C.3       1 UNK         0.0835 
      6 C6         28.1040   -0.6304   -1.4143 C.3       12 UNK        -0.0855 
      7 S7         28.9994   -1.9533   -0.5212 S.3       12 UNK        -0.2931 
      8 C8         29.0058   -3.3285   -1.7219 C.3       12 UNK         0.0378 
      9 C9         29.6802   -3.0440   -3.0669 C.ar      12 UNK        -0.0802 
     10 C10        30.6517   -2.0481   -3.2461 C.ar      12 UNK        -0.0944 
     11 C11        31.2143   -1.8242   -4.5084 C.ar      12 UNK        -0.0787 
     12 C12        30.8037   -2.5981   -5.5959 C.ar      12 UNK        -0.0862 
     13 C13        29.8597   -3.6107   -5.4276 C.ar      12 UNK        -0.0733 
     14 C14        29.3206   -3.8368   -4.1596 C.ar      12 UNK        -0.0832 
     15 C15        29.4413   -4.4895   -6.5956 C.3       12 UNK         0.0240 
     16 S16        27.6758   -4.2851   -6.9885 S.3       12 UNK        -0.2522 
     17 C17        27.6746   -3.0151   -8.3018 C.3       12 UNK        -0.0967 
     18 CA         27.1466   -1.6148   -7.8868 C.3       5 UNK         0.0660 
     19 N          26.0144   -1.6756   -6.9484 N.am      5 UNK        -0.4015 
     20 C          25.1735   -0.6684   -6.6788 C.2       4 UNK         0.4946 
     21 O          25.2820    0.4407   -7.2004 O.2       4 UNK        -0.5353 
     22 CA         24.0720   -0.8736   -5.6226 C.3       4 UNK         0.0277 
     23 CB         22.6724   -0.8732   -6.2692 C.3       4 UNK        -0.1981 
     24 N          24.2553   -2.0187   -4.7177 N.am      4 UNK        -0.4209 
     25 C          24.1418   -3.3291   -4.9864 C.2       3 UNK         0.4942 
     26 O          23.9248   -3.7714   -6.1140 O.2       3 UNK        -0.5208 
     27 CA         24.3329   -4.3280   -3.8254 C.3       3 UNK         0.0250 
     28 CB         25.5674   -5.2059   -4.0690 C.3       3 UNK        -0.1990 
     29 N          24.4593   -3.6959   -2.5082 N.am      3 UNK        -0.4232 
     30 C          23.4315   -3.2342   -1.7848 C.2       2 UNK         0.4993 
     31 O          22.2545   -3.3330   -2.1331 O.2       2 UNK        -0.5286 
     32 CA         23.7609   -2.5328   -0.4532 C.3       2 UNK         0.0209 
     33 CB         23.6257   -3.5222    0.7161 C.3       2 UNK        -0.1931 
     34 N          25.0697   -1.8666   -0.3631 N.am      2 UNK        -0.4546 
     35 C          25.5545   -0.9397   -1.2045 C.2       1 UNK         0.5154 
     36 O          25.0486   -0.6766   -2.2962 O.2       1 UNK        -0.5181 
     37 C          28.2693   -0.6252   -7.4894 C.2       5 UNK         0.5014 
     38 O          29.1090   -0.2983   -8.3323 O.2       5 UNK        -0.5248 
     39 N          28.2309   -0.0910   -6.2603 N.am      6 UNK        -0.4434 
     40 CA         29.0160    1.0736   -5.8464 C.3       6 UNK         0.0363 
     41 CB         28.9346    1.2463   -4.3243 C.3       6 UNK        -0.1936 
     42 C          28.5895    2.3709   -6.5563 C.2       6 UNK         0.5081 
     43 O          29.4521    3.1973   -6.8481 O.2       6 UNK        -0.5248 
     44 N          27.2923    2.5203   -6.8704 N.am      7 UNK        -0.4718 
     45 CA         26.7631    3.6557   -7.6382 C.3       7 UNK         0.0273 
     46 CB         25.2420    3.7584   -7.4425 C.3       7 UNK        -0.1935 
     47 C          27.1161    3.5597   -9.1324 C.2       7 UNK         0.5018 
     48 O          27.2494    4.5904   -9.7919 O.2       7 UNK        -0.5186 
     49 N          27.3106    2.3269   -9.6228 N.am      8 UNK        -0.4240 
     50 CA         27.8710    2.0244  -10.9429 C.3       8 UNK         0.0235 
     51 CB         27.4456    0.6043  -11.3552 C.3       8 UNK        -0.2000 
     52 C          29.4071    2.1675  -10.9898 C.2       8 UNK         0.4941 
     53 O          29.9795    2.0538  -12.0741 O.2       8 UNK        -0.5273 
     54 N          30.0408    2.4032   -9.8289 N.am      9 UNK        -0.4262 
     55 CA         31.4790    2.5629   -9.5994 C.3       9 UNK         0.0264 
     56 CB         32.0121    3.8321  -10.2979 C.3       9 UNK        -0.1955 
     57 C          32.2946    1.3015   -9.9358 C.2       9 UNK         0.5031 
     58 O          33.4289    1.4170  -10.4050 O.2       9 UNK        -0.5390 
     59 N          31.7332    0.1130   -9.6607 N.am      10 UNK        -0.4204 
     60 CA         32.3730   -1.1809   -9.9358 C.3       10 UNK         0.0237 
     61 CB         31.3472   -2.3094   -9.7578 C.3       10 UNK        -0.1985 
     62 C          33.6526   -1.4520   -9.1169 C.2       10 UNK         0.4970 
     63 O          34.4598   -2.2835   -9.5340 O.2       10 UNK        -0.4914 
     64 N          33.8344   -0.7347   -7.9994 N.am      11 UNK        -0.4285 
     65 CA         35.0912   -0.6846   -7.2329 C.3       11 UNK         0.1007 
     66 C          36.2044    0.1842   -7.8937 C.2       11 UNK         0.5703 
     67 N          35.9418    0.9346   -8.9585 N.am      11 UNK        -0.7361 
     68 O          37.3438    0.1670   -7.4336 O.2       11 UNK        -0.4986 
     69 C69        34.8526   -0.2618   -5.7571 C.3       12 UNK        -0.0947 
     70 S70        33.9229   -1.5210   -4.8245 S.3       12 UNK        -0.2240 
     71 C71        32.2770   -0.7592   -4.7172 C.3       12 UNK         0.0194 
     72 H72        27.2452    0.0007    3.2452 H         1 UNK         0.0906 
     73 H73        26.5729    1.6262    3.3840 H         1 UNK         0.0906 
     74 H74        25.5192    0.2182    3.5419 H         1 UNK         0.0906 
     75 H75        27.6837   -0.5626    1.1138 H         1 UNK         0.3140 
     76 H76        26.6170    0.8729   -1.1112 H         1 UNK         0.1085 
     77 H77        27.9260   -0.9288   -2.4491 H         1 UNK         0.0836 
     78 H78        28.7938    0.2126   -1.4733 H         1 UNK         0.0836 
     79 H79        27.9707   -3.6318   -1.8866 H         1 UNK         0.0731 
     80 H80        29.5062   -4.1815   -1.2618 H         1 UNK         0.0731 
     81 H81        30.9743   -1.4451   -2.4092 H         1 UNK         0.1312 
     82 H82        31.2478   -2.4250   -6.5641 H         1 UNK         0.1406 
     83 H83        28.6169   -4.6445   -4.0268 H         1 UNK         0.1631 
     84 H84        29.6156   -5.5319   -6.3252 H         1 UNK         0.0717 
     85 H85        30.0534   -4.3022   -7.4786 H         1 UNK         0.0717 
     86 H86        28.6554   -2.9544   -8.7735 H         1 UNK         0.0934 
     87 H87        27.0225   -3.4041   -9.0856 H         1 UNK         0.0934 
     88 H88        26.7351   -1.1759   -8.7981 H         1 UNK         0.0739 
     89 H89        25.8424   -2.5760   -6.5200 H         1 UNK         0.3093 
     90 H90        24.1242    0.0034   -4.9753 H         1 UNK         0.0818 
     91 H91        22.5462   -1.6951   -6.9742 H         1 UNK         0.0819 
     92 H92        21.8878   -0.9511   -5.5167 H         1 UNK         0.0819 
     93 H93        22.5006    0.0519   -6.8213 H         1 UNK         0.0819 
     94 H94        24.4805   -1.7505   -3.7618 H         1 UNK         0.3041 
     95 H95        23.4551   -4.9778   -3.8158 H         1 UNK         0.0784 
     96 H96        25.4813   -5.7570   -5.0067 H         1 UNK         0.0793 
     97 H97        26.4648   -4.5960   -4.1319 H         1 UNK         0.0793 
     98 H98        25.7051   -5.9386   -3.2735 H         1 UNK         0.0793 
     99 H99        25.3916   -3.5707   -2.1428 H         1 UNK         0.3024 
    100 H100       23.0064   -1.7534   -0.3247 H         1 UNK         0.1171 
    101 H101       22.6540   -4.0186    0.7003 H         1 UNK         0.0786 
    102 H102       24.3896   -4.2998    0.6758 H         1 UNK         0.0786 
    103 H103       23.7104   -3.0161    1.6780 H         1 UNK         0.0786 
    104 H104       25.5802   -2.0069    0.4970 H         1 UNK         0.2977 
    105 H105       27.5268   -0.4222   -5.6187 H         1 UNK         0.3127 
    106 H106       30.0578    0.8896   -6.1130 H         1 UNK         0.0770 
    107 H107       27.9053    1.3493   -3.9790 H         1 UNK         0.0814 
    108 H108       29.4796    2.1344   -4.0008 H         1 UNK         0.0814 
    109 H109       29.3841    0.3963   -3.8163 H         1 UNK         0.0814 
    110 H110       26.6348    1.7724   -6.6688 H         1 UNK         0.2983 
    111 H111       27.2155    4.5720   -7.2514 H         1 UNK         0.0947 
    112 H112       24.8494    4.6531   -7.9274 H         1 UNK         0.0806 
    113 H113       24.9793    3.8204   -6.3864 H         1 UNK         0.0806 
    114 H114       24.7172    2.9039   -7.8703 H         1 UNK         0.0806 
    115 H115       27.1570    1.5449   -9.0024 H         1 UNK         0.3000 
    116 H116       27.4558    2.7288  -11.6669 H         1 UNK         0.0850 
    117 H117       27.7488    0.3922  -12.3814 H         1 UNK         0.0810 
    118 H118       26.3636    0.4805  -11.3070 H         1 UNK         0.0810 
    119 H119       27.9030   -0.1564  -10.7229 H         1 UNK         0.0810 
    120 H120       29.4729    2.4777   -8.9952 H         1 UNK         0.3040 
    121 H121       31.5961    2.7118   -8.5252 H         1 UNK         0.0766 
    122 H122       31.4258    4.7099  -10.0261 H         1 UNK         0.0812 
    123 H123       31.9910    3.7364  -11.3839 H         1 UNK         0.0812 
    124 H124       33.0450    4.0326  -10.0105 H         1 UNK         0.0812 
    125 H125       30.7962    0.0852   -9.2630 H         1 UNK         0.3205 
    126 H126       32.6747   -1.1736  -10.9855 H         1 UNK         0.0754 
    127 H127       31.7920   -3.2847   -9.9603 H         1 UNK         0.0769 
    128 H128       30.5061   -2.1881  -10.4409 H         1 UNK         0.0769 
    129 H129       30.9522   -2.3319   -8.7452 H         1 UNK         0.0769 
    130 H130       33.1265   -0.0672   -7.7389 H         1 UNK         0.2981 
    131 H131       35.5016   -1.6962   -7.2133 H         1 UNK         0.0541 
    132 H132       36.6870    1.4784   -9.3629 H         1 UNK         0.3459 
    133 H133       35.0176    0.9698   -9.3772 H         1 UNK         0.3459 
    134 H134       34.3450    0.7028   -5.7035 H         1 UNK         0.0612 
    135 H135       35.8020   -0.1311   -5.2343 H         1 UNK         0.0612 
    136 H136       32.2646   -0.0264   -3.9090 H         1 UNK         0.0624 
    137 H137       32.0648   -0.2157   -5.6379 H         1 UNK         0.0624 
@<TRIPOS>BOND
     1    1    2 1    
     2    1   72 1    
     3    1   73 1    
     4    1   74 1    
     5    2    3 2    
     6    2    4 am   BACKBONE|DICT|INTERRES
     7    4    5 1    
     8    4   75 1    
     9    5    6 1    
    10    5   35 1    
    11    5   76 1    
    12    6    7 1    
    13    6   77 1    
    14    6   78 1    
    15    7    8 1    
    16    8    9 1    
    17    8   79 1    
    18    8   80 1    
    19    9   10 ar   
    20    9   14 ar   
    21   10   11 ar   
    22   10   81 1    
    23   11   12 ar   
    24   11   71 1    
    25   12   13 ar   
    26   12   82 1    
    27   13   14 ar   
    28   13   15 1    
    29   14   83 1    
    30   15   16 1    
    31   15   84 1    
    32   15   85 1    
    33   16   17 1    
    34   17   18 1    
    35   17   86 1    
    36   17   87 1    
    37   18   19 1    
    38   18   37 1    
    39   18   88 1    
    40   19   20 am   BACKBONE|DICT|INTERRES
    41   19   89 1    
    42   20   21 2    
    43   20   22 1    
    44   22   23 1    
    45   22   24 1    
    46   22   90 1    
    47   23   91 1    
    48   23   92 1    
    49   23   93 1    
    50   24   25 am   BACKBONE|DICT|INTERRES
    51   24   94 1    
    52   25   26 2    
    53   25   27 1    
    54   27   28 1    
    55   27   29 1    
    56   27   95 1    
    57   28   96 1    
    58   28   97 1    
    59   28   98 1    
    60   29   30 am   BACKBONE|DICT|INTERRES
    61   29   99 1    
    62   30   31 2    
    63   30   32 1    
    64   32   33 1    
    65   32   34 1    
    66   32  100 1    
    67   33  101 1    
    68   33  102 1    
    69   33  103 1    
    70   34   35 am   BACKBONE|DICT|INTERRES
    71   34  104 1    
    72   35   36 2    
    73   37   38 2    
    74   37   39 am   BACKBONE|DICT|INTERRES
    75   39   40 1    
    76   39  105 1    
    77   40   41 1    
    78   40   42 1    
    79   40  106 1    
    80   41  107 1    
    81   41  108 1    
    82   41  109 1    
    83   42   43 2    
    84   42   44 am   BACKBONE|DICT|INTERRES
    85   44   45 1    
    86   44  110 1    
    87   45   46 1    
    88   45   47 1    
    89   45  111 1    
    90   46  112 1    
    91   46  113 1    
    92   46  114 1    
    93   47   48 2    
    94   47   49 am   BACKBONE|DICT|INTERRES
    95   49   50 1    
    96   49  115 1    
    97   50   51 1    
    98   50   52 1    
    99   50  116 1    
   100   51  117 1    
   101   51  118 1    
   102   51  119 1    
   103   52   53 2    
   104   52   54 am   BACKBONE|DICT|INTERRES
   105   54   55 1    
   106   54  120 1    
   107   55   56 1    
   108   55   57 1    
   109   55  121 1    
   110   56  122 1    
   111   56  123 1    
   112   56  124 1    
   113   57   58 2    
   114   57   59 am   BACKBONE|DICT|INTERRES
   115   59   60 1    
   116   59  125 1    
   117   60   61 1    
   118   60   62 1    
   119   60  126 1    
   120   61  127 1    
   121   61  128 1    
   122   61  129 1    
   123   62   63 2    
   124   62   64 am   BACKBONE|DICT|INTERRES
   125   64   65 1    
   126   64  130 1    
   127   65   66 1    
   128   65   69 1    
   129   65  131 1    
   130   66   67 am   BACKBONE|DICT|INTERRES
   131   66   68 2    
   132   67  132 1    
   133   67  133 1    
   134   69   70 1    
   135   69  134 1    
   136   69  135 1    
   137   70   71 1    
   138   71  136 1    
   139   71  137 1    
@<TRIPOS>SUBSTRUCTURE
     1 UNK         1 GROUP             0       ****    0 ROOT    
