@<TRIPOS>MOLECULE
3R137
137   139    1
SMALL
USER_CHARGES


@<TRIPOS>ATOM
      1 CA         26.2736   -6.6218   -5.2028 C.3       0 UNK        -0.2020 
      2 C          25.8876   -5.8022   -3.9815 C.2       0 UNK         0.4855 
      3 O          24.7812   -5.2637   -3.9336 O.2       0 UNK        -0.5197 
      4 N          26.7940   -5.7005   -2.9992 N.am      1 UNK        -0.4892 
      5 CA         26.6536   -4.9082   -1.7715 C.3       1 UNK         0.0835 
      6 C6         27.8751   -5.0331   -0.8068 C.3       12 UNK        -0.0855 
      7 S7         29.5534   -5.3789   -1.4801 S.3       12 UNK        -0.2931 
      8 C8         29.7685   -4.3491   -2.9733 C.3       12 UNK         0.0378 
      9 C9         30.4144   -2.9896   -2.7275 C.ar      12 UNK        -0.0802 
     10 C10        31.4495   -2.5600   -3.5643 C.ar      12 UNK        -0.0944 
     11 C11        32.0165   -1.2925   -3.4061 C.ar      12 UNK        -0.0787 
     12 C12        31.5518   -0.4510   -2.3920 C.ar      12 UNK        -0.0862 
     13 C13        30.5089   -0.8609   -1.5566 C.ar      12 UNK        -0.0733 
     14 C14        29.9477   -2.1306   -1.7279 C.ar      12 UNK        -0.0832 
     15 C15        29.9689    0.0776   -0.4860 C.3       12 UNK         0.0240 
     16 S16        29.0432    1.4782   -1.1987 S.3       12 UNK        -0.2522 
     17 C17        27.7607    0.6293   -2.1794 C.3       12 UNK        -0.0967 
     18 CA         28.0358    0.7283   -3.7041 C.3       5 UNK         0.0660 
     19 N          27.6001   -0.4702   -4.4260 N.am      5 UNK        -0.4015 
     20 C          27.8802   -0.7286   -5.7117 C.2       4 UNK         0.4946 
     21 O          28.6629   -0.0621   -6.3845 O.2       4 UNK        -0.5353 
     22 CA         27.1360   -1.8982   -6.3804 C.3       4 UNK         0.0277 
     23 CB         27.9857   -3.1770   -6.3964 C.3       4 UNK        -0.1981 
     24 N          25.8373   -2.1728   -5.7583 N.am      4 UNK        -0.4209 
     25 C          24.7492   -1.4099   -5.9320 C.2       3 UNK         0.4942 
     26 O          24.7114   -0.4283   -6.6721 O.2       3 UNK        -0.5208 
     27 CA         23.5086   -1.7706   -5.1004 C.3       3 UNK         0.0250 
     28 CB         22.7582   -2.9606   -5.7188 C.3       3 UNK        -0.1990 
     29 N          23.8382   -2.0538   -3.7010 N.am      3 UNK        -0.4232 
     30 C          24.3049   -1.1334   -2.8435 C.2       2 UNK         0.4993 
     31 O          24.4850    0.0467   -3.1426 O.2       2 UNK        -0.5286 
     32 CA         24.6771   -1.6027   -1.4254 C.3       2 UNK         0.0209 
     33 CB         23.4676   -1.4700   -0.4865 C.3       2 UNK        -0.1931 
     34 N          25.2076   -2.9687   -1.3460 N.am      2 UNK        -0.4546 
     35 C          26.2583   -3.4375   -2.0346 C.2       1 UNK         0.5154 
     36 O          26.8852   -2.7648   -2.8544 O.2       1 UNK        -0.5181 
     37 C          27.4124    2.0047   -4.3107 C.2       5 UNK         0.5014 
     38 O          28.1279    2.9788   -4.5493 O.2       5 UNK        -0.5248 
     39 N          26.0926    1.9687   -4.5578 N.am      6 UNK        -0.4434 
     40 CA         25.3301    3.0369   -5.2064 C.3       6 UNK         0.0363 
     41 CB         23.8243    2.7558   -5.0757 C.3       6 UNK        -0.1936 
     42 C          25.7331    3.2290   -6.6768 C.2       6 UNK         0.5081 
     43 O          26.0723    4.3449   -7.0737 O.2       6 UNK        -0.5248 
     44 N          25.7384    2.1387   -7.4555 N.am      7 UNK        -0.4718 
     45 CA         26.2175    2.0997   -8.8401 C.3       7 UNK         0.0273 
     46 CB         25.5216    0.9431   -9.5815 C.3       7 UNK        -0.1935 
     47 C          27.7527    1.9845   -8.8766 C.2       7 UNK         0.5018 
     48 O          28.2830    1.0023   -9.3981 O.2       7 UNK        -0.5186 
     49 N          28.4285    2.9960   -8.3105 N.am      8 UNK        -0.4240 
     50 CA         29.8592    3.0498   -7.9773 C.3       8 UNK         0.0235 
     51 CB         30.1830    4.4376   -7.4017 C.3       8 UNK        -0.2000 
     52 C          30.8510    2.6919   -9.0991 C.2       8 UNK         0.4941 
     53 O          31.9812    2.3132   -8.7935 O.2       8 UNK        -0.5273 
     54 N          30.4214    2.7620  -10.3672 N.am      9 UNK        -0.4262 
     55 CA         31.1478    2.2371  -11.5287 C.3       9 UNK         0.0264 
     56 CB         30.3504    2.5426  -12.8064 C.3       9 UNK        -0.1955 
     57 C          31.4552    0.7278  -11.4326 C.2       9 UNK         0.5031 
     58 O          32.4679    0.2869  -11.9787 O.2       9 UNK        -0.5390 
     59 N          30.6185   -0.0275  -10.7023 N.am      10 UNK        -0.4204 
     60 CA         30.8224   -1.4420  -10.3772 C.3       10 UNK         0.0237 
     61 CB         29.5648   -1.9863   -9.6803 C.3       10 UNK        -0.1985 
     62 C          32.0706   -1.7140   -9.5147 C.2       10 UNK         0.4970 
     63 O          32.5727   -2.8385   -9.5424 O.2       10 UNK        -0.4914 
     64 N          32.5595   -0.7014   -8.7847 N.am      11 UNK        -0.4285 
     65 CA         33.8110   -0.7610   -8.0138 C.3       11 UNK         0.1007 
     66 C          35.0941   -0.6362   -8.8883 C.2       11 UNK         0.5703 
     67 N          35.0052   -0.3362  -10.1806 N.am      11 UNK        -0.7361 
     68 O          36.1980   -0.8294   -8.3841 O.2       11 UNK        -0.4986 
     69 C69        33.8292    0.2625   -6.8460 C.3       12 UNK        -0.0947 
     70 S70        32.3867    0.1046   -5.7412 S.3       12 UNK        -0.2240 
     71 C71        33.1068   -0.8230   -4.3546 C.3       12 UNK         0.0194 
     72 H72        25.6115   -7.4816   -5.3010 H         1 UNK         0.0906 
     73 H73        26.1812   -6.0164   -6.1041 H         1 UNK         0.0906 
     74 H74        27.2990   -6.9861   -5.1433 H         1 UNK         0.0906 
     75 H75        27.6832   -6.1709   -3.0931 H         1 UNK         0.3140 
     76 H76        25.8031   -5.3570   -1.2529 H         1 UNK         0.1085 
     77 H77        27.6721   -5.8669   -0.1326 H         1 UNK         0.0836 
     78 H78        27.9431   -4.1730   -0.1381 H         1 UNK         0.0836 
     79 H79        28.8236   -4.1980   -3.4774 H         1 UNK         0.0731 
     80 H80        30.3805   -4.9246   -3.6696 H         1 UNK         0.0731 
     81 H81        31.8008   -3.2023   -4.3603 H         1 UNK         0.1312 
     82 H82        31.9775    0.5362   -2.2740 H         1 UNK         0.1406 
     83 H83        29.1287   -2.4417   -1.0976 H         1 UNK         0.1631 
     84 H84        30.7992    0.4664    0.1051 H         1 UNK         0.0717 
     85 H85        29.3226   -0.4585    0.2108 H         1 UNK         0.0717 
     86 H86        27.7240   -0.4127   -1.8639 H         1 UNK         0.0934 
     87 H87        26.7850    1.0403   -1.9124 H         1 UNK         0.0934 
     88 H88        29.1158    0.7877   -3.8601 H         1 UNK         0.0739 
     89 H89        27.0500   -1.1479   -3.9078 H         1 UNK         0.3093 
     90 H90        26.9648   -1.6042   -7.4188 H         1 UNK         0.0818 
     91 H91        28.0483   -3.6242   -5.4086 H         1 UNK         0.0819 
     92 H92        27.5640   -3.9205   -7.0726 H         1 UNK         0.0819 
     93 H93        29.0039   -2.9731   -6.7311 H         1 UNK         0.0819 
     94 H94        25.7980   -2.9257   -5.0843 H         1 UNK         0.3041 
     95 H95        22.8400   -0.9069   -5.1159 H         1 UNK         0.0784 
     96 H96        22.4687   -2.7440   -6.7481 H         1 UNK         0.0793 
     97 H97        23.3692   -3.8635   -5.7370 H         1 UNK         0.0793 
     98 H98        21.8454   -3.1845   -5.1666 H         1 UNK         0.0793 
     99 H99        23.7643   -3.0152   -3.3947 H         1 UNK         0.3024 
    100 H100       25.4578   -0.9327   -1.0619 H         1 UNK         0.1171 
    101 H101       23.7406   -1.6837    0.5471 H         1 UNK         0.0786 
    102 H102       23.0655   -0.4559   -0.5089 H         1 UNK         0.0786 
    103 H103       22.6602   -2.1468   -0.7689 H         1 UNK         0.0786 
    104 H104       24.7352   -3.5893   -0.7038 H         1 UNK         0.2977 
    105 H105       25.5624    1.1528   -4.2598 H         1 UNK         0.3127 
    106 H106       25.5468    3.9680   -4.6785 H         1 UNK         0.0770 
    107 H107       23.5440    1.8133   -5.5472 H         1 UNK         0.0814 
    108 H108       23.2372    3.5452   -5.5467 H         1 UNK         0.0814 
    109 H109       23.5216    2.7056   -4.0296 H         1 UNK         0.0814 
    110 H110       25.4469    1.2469   -7.0585 H         1 UNK         0.2983 
    111 H111       25.9438    3.0296   -9.3433 H         1 UNK         0.0947 
    112 H112       25.8156    0.9195  -10.6315 H         1 UNK         0.0806 
    113 H113       24.4369    1.0456   -9.5489 H         1 UNK         0.0806 
    114 H114       25.7786   -0.0250   -9.1498 H         1 UNK         0.0806 
    115 H115       27.8587    3.7319   -7.9064 H         1 UNK         0.3000 
    116 H116       30.0138    2.3123   -7.1863 H         1 UNK         0.0850 
    117 H117       31.2312    4.5049   -7.1063 H         1 UNK         0.0810 
    118 H118       29.5858    4.6458   -6.5133 H         1 UNK         0.0810 
    119 H119       29.9953    5.2289   -8.1284 H         1 UNK         0.0810 
    120 H120       29.4737    3.0719  -10.5248 H         1 UNK         0.3040 
    121 H121       32.1037    2.7619  -11.5834 H         1 UNK         0.0766 
    122 H122       30.1997    3.6147  -12.9347 H         1 UNK         0.0812 
    123 H123       29.3707    2.0629  -12.7951 H         1 UNK         0.0812 
    124 H124       30.8790    2.1835  -13.6906 H         1 UNK         0.0812 
    125 H125       29.8059    0.4158  -10.2729 H         1 UNK         0.3205 
    126 H126       30.9540   -1.9804  -11.3179 H         1 UNK         0.0754 
    127 H127       29.6660   -3.0491   -9.4567 H         1 UNK         0.0769 
    128 H128       28.6797   -1.8678  -10.3057 H         1 UNK         0.0769 
    129 H129       29.3776   -1.4694   -8.7380 H         1 UNK         0.0769 
    130 H130       32.1131    0.2078   -8.8188 H         1 UNK         0.2981 
    131 H131       33.8652   -1.7524   -7.5603 H         1 UNK         0.0541 
    132 H132       34.1076   -0.1784  -10.6208 H         1 UNK         0.3459 
    133 H133       35.8491   -0.2667  -10.7264 H         1 UNK         0.3459 
    134 H134       34.7396    0.1549   -6.2534 H         1 UNK         0.0612 
    135 H135       33.8455    1.2817   -7.2341 H         1 UNK         0.0612 
    136 H136       33.8232   -0.1918   -3.8267 H         1 UNK         0.0624 
    137 H137       33.6652   -1.6779   -4.7393 H         1 UNK         0.0624 
@<TRIPOS>BOND
     1    1    2 1    
     2    1   72 1    
     3    1   73 1    
     4    1   74 1    
     5    2    3 2    
     6    2    4 am   BACKBONE|DICT|INTERRES
     7    4    5 1    
     8    4   75 1    
     9    5    6 1    
    10    5   35 1    
    11    5   76 1    
    12    6    7 1    
    13    6   77 1    
    14    6   78 1    
    15    7    8 1    
    16    8    9 1    
    17    8   79 1    
    18    8   80 1    
    19    9   10 ar   
    20    9   14 ar   
    21   10   11 ar   
    22   10   81 1    
    23   11   12 ar   
    24   11   71 1    
    25   12   13 ar   
    26   12   82 1    
    27   13   14 ar   
    28   13   15 1    
    29   14   83 1    
    30   15   16 1    
    31   15   84 1    
    32   15   85 1    
    33   16   17 1    
    34   17   18 1    
    35   17   86 1    
    36   17   87 1    
    37   18   19 1    
    38   18   37 1    
    39   18   88 1    
    40   19   20 am   BACKBONE|DICT|INTERRES
    41   19   89 1    
    42   20   21 2    
    43   20   22 1    
    44   22   23 1    
    45   22   24 1    
    46   22   90 1    
    47   23   91 1    
    48   23   92 1    
    49   23   93 1    
    50   24   25 am   BACKBONE|DICT|INTERRES
    51   24   94 1    
    52   25   26 2    
    53   25   27 1    
    54   27   28 1    
    55   27   29 1    
    56   27   95 1    
    57   28   96 1    
    58   28   97 1    
    59   28   98 1    
    60   29   30 am   BACKBONE|DICT|INTERRES
    61   29   99 1    
    62   30   31 2    
    63   30   32 1    
    64   32   33 1    
    65   32   34 1    
    66   32  100 1    
    67   33  101 1    
    68   33  102 1    
    69   33  103 1    
    70   34   35 am   BACKBONE|DICT|INTERRES
    71   34  104 1    
    72   35   36 2    
    73   37   38 2    
    74   37   39 am   BACKBONE|DICT|INTERRES
    75   39   40 1    
    76   39  105 1    
    77   40   41 1    
    78   40   42 1    
    79   40  106 1    
    80   41  107 1    
    81   41  108 1    
    82   41  109 1    
    83   42   43 2    
    84   42   44 am   BACKBONE|DICT|INTERRES
    85   44   45 1    
    86   44  110 1    
    87   45   46 1    
    88   45   47 1    
    89   45  111 1    
    90   46  112 1    
    91   46  113 1    
    92   46  114 1    
    93   47   48 2    
    94   47   49 am   BACKBONE|DICT|INTERRES
    95   49   50 1    
    96   49  115 1    
    97   50   51 1    
    98   50   52 1    
    99   50  116 1    
   100   51  117 1    
   101   51  118 1    
   102   51  119 1    
   103   52   53 2    
   104   52   54 am   BACKBONE|DICT|INTERRES
   105   54   55 1    
   106   54  120 1    
   107   55   56 1    
   108   55   57 1    
   109   55  121 1    
   110   56  122 1    
   111   56  123 1    
   112   56  124 1    
   113   57   58 2    
   114   57   59 am   BACKBONE|DICT|INTERRES
   115   59   60 1    
   116   59  125 1    
   117   60   61 1    
   118   60   62 1    
   119   60  126 1    
   120   61  127 1    
   121   61  128 1    
   122   61  129 1    
   123   62   63 2    
   124   62   64 am   BACKBONE|DICT|INTERRES
   125   64   65 1    
   126   64  130 1    
   127   65   66 1    
   128   65   69 1    
   129   65  131 1    
   130   66   67 am   BACKBONE|DICT|INTERRES
   131   66   68 2    
   132   67  132 1    
   133   67  133 1    
   134   69   70 1    
   135   69  134 1    
   136   69  135 1    
   137   70   71 1    
   138   71  136 1    
   139   71  137 1    
@<TRIPOS>SUBSTRUCTURE
     1 UNK         1 GROUP             0       ****    0 ROOT    
