@<TRIPOS>MOLECULE
3R137
137   139    1
SMALL
USER_CHARGES


@<TRIPOS>ATOM
      1 CA         23.1791   -5.8293   -3.6129 C.3       0 UNK        -0.2020 
      2 C          24.4746   -5.0646   -3.3898 C.2       0 UNK         0.4855 
      3 O          24.9030   -4.3259   -4.2751 O.2       0 UNK        -0.5197 
      4 N          25.0875   -5.2254   -2.2082 N.am      1 UNK        -0.4892 
      5 CA         26.3540   -4.6096   -1.7845 C.3       1 UNK         0.0835 
      6 C6         27.5861   -5.2332   -2.4987 C.3       12 UNK        -0.0855 
      7 S7         29.0341   -5.3210   -1.3944 S.3       12 UNK        -0.2931 
      8 C8         30.4170   -5.0878   -2.5615 C.3       12 UNK         0.0378 
      9 C9         30.6562   -3.6334   -2.9589 C.ar      12 UNK        -0.0802 
     10 C10        30.8925   -3.3067   -4.2986 C.ar      12 UNK        -0.0944 
     11 C11        31.1901   -1.9935   -4.6770 C.ar      12 UNK        -0.0787 
     12 C12        31.2558   -1.0049   -3.6881 C.ar      12 UNK        -0.0862 
     13 C13        30.9666   -1.2989   -2.3534 C.ar      12 UNK        -0.0733 
     14 C14        30.6898   -2.6207   -1.9933 C.ar      12 UNK        -0.0832 
     15 C15        30.9388   -0.1970   -1.2951 C.3       12 UNK         0.0240 
     16 S16        30.1087    1.3437   -1.8377 S.3       12 UNK        -0.2522 
     17 C17        28.4997    0.7348   -2.4493 C.3       12 UNK        -0.0967 
     18 CA         28.3911    0.8234   -3.9975 C.3       5 UNK         0.0660 
     19 N          27.6711   -0.3157   -4.5715 N.am      5 UNK        -0.4015 
     20 C          27.5995   -0.5990   -5.8811 C.2       4 UNK         0.4946 
     21 O          28.1724    0.0398   -6.7631 O.2       4 UNK        -0.5353 
     22 CA         26.6989   -1.7738   -6.2886 C.3       4 UNK         0.0277 
     23 CB         27.4482   -3.1041   -6.1258 C.3       4 UNK        -0.1981 
     24 N          25.4475   -1.8039   -5.5281 N.am      4 UNK        -0.4209 
     25 C          24.5214   -0.8330   -5.5593 C.2       3 UNK         0.4942 
     26 O          24.5880    0.1565   -6.2885 O.2       3 UNK        -0.5208 
     27 CA         23.3571   -0.9511   -4.5645 C.3       3 UNK         0.0250 
     28 CB         22.3133   -1.9708   -5.0475 C.3       3 UNK        -0.1990 
     29 N          23.8170   -1.2955   -3.2168 N.am      3 UNK        -0.4232 
     30 C          24.5750   -0.4975   -2.4497 C.2       2 UNK         0.4993 
     31 O          24.9385    0.6294   -2.7826 O.2       2 UNK        -0.5286 
     32 CA         25.0388   -1.0588   -1.0962 C.3       2 UNK         0.0209 
     33 CB         24.0030   -0.7555   -0.0022 C.3       2 UNK        -0.1931 
     34 N          25.3134   -2.4980   -1.1290 N.am      2 UNK        -0.4546 
     35 C          26.2891   -3.0666   -1.8527 C.2       1 UNK         0.5154 
     36 O          27.0494   -2.4260   -2.5812 O.2       1 UNK        -0.5181 
     37 C          27.8232    2.1772   -4.4670 C.2       5 UNK         0.5014 
     38 O          28.5938    3.0414   -4.8870 O.2       5 UNK        -0.5248 
     39 N          26.4910    2.3278   -4.4241 N.am      6 UNK        -0.4434 
     40 CA         25.7687    3.5113   -4.8991 C.3       6 UNK         0.0363 
     41 CB         24.2875    3.4049   -4.5031 C.3       6 UNK        -0.1936 
     42 C          25.9098    3.7371   -6.4142 C.2       6 UNK         0.5081 
     43 O          26.0735    4.8801   -6.8421 O.2       6 UNK        -0.5248 
     44 N          25.8606    2.6499   -7.1956 N.am      7 UNK        -0.4718 
     45 CA         26.0614    2.6640   -8.6473 C.3       7 UNK         0.0273 
     46 CB         25.5283    1.3465   -9.2341 C.3       7 UNK        -0.1935 
     47 C          27.5290    2.8698   -9.0671 C.2       7 UNK         0.5018 
     48 O          27.7686    3.2697  -10.2071 O.2       7 UNK        -0.5186 
     49 N          28.4695    2.5575   -8.1622 N.am      8 UNK        -0.4240 
     50 CA         29.9180    2.4421   -8.3717 C.3       8 UNK         0.0235 
     51 CB         30.5498    3.8108   -8.6995 C.3       8 UNK        -0.2000 
     52 C          30.2581    1.3472   -9.4038 C.2       8 UNK         0.4941 
     53 O          31.1275    1.5439  -10.2564 O.2       8 UNK        -0.5273 
     54 N          29.5354    0.2207   -9.3215 N.am      9 UNK        -0.4262 
     55 CA         29.5856   -0.8996  -10.2607 C.3       9 UNK         0.0264 
     56 CB         28.4297   -1.8652   -9.9506 C.3       9 UNK        -0.1955 
     57 C          30.9449   -1.6130  -10.2114 C.2       9 UNK         0.5031 
     58 O          31.2099   -2.3466   -9.2590 O.2       9 UNK        -0.5390 
     59 N          31.7970   -1.3434  -11.2100 N.am      10 UNK        -0.4204 
     60 CA         33.1868   -1.7976  -11.3843 C.3       10 UNK         0.0237 
     61 CB         33.2909   -3.3356  -11.4211 C.3       10 UNK        -0.1985 
     62 C          34.1890   -1.1933  -10.3807 C.2       10 UNK         0.4970 
     63 O          35.3246   -0.9187  -10.7704 O.2       10 UNK        -0.4914 
     64 N          33.7646   -0.9772   -9.1309 N.am      11 UNK        -0.4285 
     65 CA         34.5212   -0.2821   -8.0793 C.3       11 UNK         0.1007 
     66 C          34.7556    1.2372   -8.3337 C.2       11 UNK         0.5703 
     67 N          33.9872    1.9018   -9.1901 N.am      11 UNK        -0.7361 
     68 O          35.6677    1.8193   -7.7512 O.2       11 UNK        -0.4986 
     69 C69        33.9244   -0.5473   -6.6704 C.3       12 UNK        -0.0947 
     70 S70        32.1644   -0.0785   -6.5415 S.3       12 UNK        -0.2240 
     71 C71        31.3650   -1.6772   -6.1633 C.3       12 UNK         0.0194 
     72 H72        23.2563   -6.4389   -4.5127 H         1 UNK         0.0906 
     73 H73        22.9433   -6.4879   -2.7774 H         1 UNK         0.0906 
     74 H74        22.3500   -5.1345   -3.7428 H         1 UNK         0.0906 
     75 H75        24.6643   -5.8388   -1.5245 H         1 UNK         0.3140 
     76 H76        26.4323   -4.8497   -0.7225 H         1 UNK         0.1085 
     77 H77        27.8353   -4.7099   -3.4207 H         1 UNK         0.0836 
     78 H78        27.3656   -6.2583   -2.8005 H         1 UNK         0.0836 
     79 H79        30.2462   -5.7110   -3.4408 H         1 UNK         0.0731 
     80 H80        31.3277   -5.4642   -2.0940 H         1 UNK         0.0731 
     81 H81        30.8480   -4.0793   -5.0542 H         1 UNK         0.1312 
     82 H82        31.4850    0.0165   -3.9519 H         1 UNK         0.1406 
     83 H83        30.4938   -2.8644   -0.9582 H         1 UNK         0.1631 
     84 H84        31.9640    0.0392   -1.0077 H         1 UNK         0.0717 
     85 H85        30.4382   -0.5507   -0.3924 H         1 UNK         0.0717 
     86 H86        28.3876   -0.2960   -2.1142 H         1 UNK         0.0934 
     87 H87        27.6957    1.2817   -1.9525 H         1 UNK         0.0934 
     88 H88        29.3917    0.7659   -4.4253 H         1 UNK         0.0739 
     89 H89        27.2276   -0.9522   -3.9156 H         1 UNK         0.3093 
     90 H90        26.4414   -1.6504   -7.3424 H         1 UNK         0.0818 
     91 H91        28.3434   -3.1318   -6.7469 H         1 UNK         0.0819 
     92 H92        26.8255   -3.9526   -6.4095 H         1 UNK         0.0819 
     93 H93        27.7703   -3.2508   -5.0964 H         1 UNK         0.0819 
     94 H94        25.2973   -2.6134   -4.9279 H         1 UNK         0.3041 
     95 H95        22.8718    0.0258   -4.5080 H         1 UNK         0.0784 
     96 H96        21.9255   -1.6912   -6.0280 H         1 UNK         0.0793 
     97 H97        22.7323   -2.9727   -5.1400 H         1 UNK         0.0793 
     98 H98        21.4632   -2.0225   -4.3670 H         1 UNK         0.0793 
     99 H99        23.5961   -2.2196   -2.8773 H         1 UNK         0.3024 
    100 H100       25.9693   -0.5482   -0.8373 H         1 UNK         0.1171 
    101 H101       24.3605   -1.0654    0.9800 H         1 UNK         0.0786 
    102 H102       23.7975    0.3147    0.0532 H         1 UNK         0.0786 
    103 H103       23.0544   -1.2600   -0.1902 H         1 UNK         0.0786 
    104 H104       24.7116   -3.0918   -0.5762 H         1 UNK         0.2977 
    105 H105       25.9260    1.5909   -4.0038 H         1 UNK         0.3127 
    106 H106       26.1940    4.3816   -4.3950 H         1 UNK         0.0770 
    107 H107       23.8136    2.5291   -4.9480 H         1 UNK         0.0814 
    108 H108       23.7301    4.2825   -4.8329 H         1 UNK         0.0814 
    109 H109       24.1708    3.3333   -3.4215 H         1 UNK         0.0814 
    110 H110       25.6472    1.7502   -6.7714 H         1 UNK         0.2983 
    111 H111       25.4815    3.4882   -9.0684 H         1 UNK         0.0947 
    112 H112       25.6409    1.3245  -10.3189 H         1 UNK         0.0806 
    113 H113       24.4687    1.2146   -9.0146 H         1 UNK         0.0806 
    114 H114       26.0619    0.4843   -8.8318 H         1 UNK         0.0806 
    115 H115       28.1425    2.1887   -7.2767 H         1 UNK         0.3000 
    116 H116       30.3310    2.1077   -7.4193 H         1 UNK         0.0850 
    117 H117       31.6379    3.7411   -8.7156 H         1 UNK         0.0810 
    118 H118       30.2838    4.5580   -7.9519 H         1 UNK         0.0810 
    119 H119       30.2340    4.1818   -9.6749 H         1 UNK         0.0810 
    120 H120       28.9176    0.1209   -8.5188 H         1 UNK         0.3040 
    121 H121       29.4302   -0.5027  -11.2661 H         1 UNK         0.0766 
    122 H122       27.4624   -1.3722  -10.0476 H         1 UNK         0.0812 
    123 H123       28.5023   -2.2651   -8.9396 H         1 UNK         0.0812 
    124 H124       28.4339   -2.7125  -10.6374 H         1 UNK         0.0812 
    125 H125       31.4919   -0.6626  -11.8934 H         1 UNK         0.3205 
    126 H126       33.4854   -1.4315  -12.3681 H         1 UNK         0.0754 
    127 H127       34.3035   -3.6489  -11.6790 H         1 UNK         0.0769 
    128 H128       32.6201   -3.7610  -12.1676 H         1 UNK         0.0769 
    129 H129       33.0510   -3.7866  -10.4578 H         1 UNK         0.0769 
    130 H130       32.8232   -1.2710   -8.8914 H         1 UNK         0.2981 
    131 H131       35.5183   -0.7265   -8.0794 H         1 UNK         0.0541 
    132 H132       34.1684    2.8795   -9.3481 H         1 UNK         0.3459 
    133 H133       33.1963    1.4604   -9.6408 H         1 UNK         0.3459 
    134 H134       34.4823   -0.0071   -5.9035 H         1 UNK         0.0612 
    135 H135       34.0389   -1.6026   -6.4201 H         1 UNK         0.0612 
    136 H136       31.9123   -2.4829   -6.6540 H         1 UNK         0.0624 
    137 H137       30.3762   -1.6641   -6.6212 H         1 UNK         0.0624 
@<TRIPOS>BOND
     1    1    2 1    
     2    1   72 1    
     3    1   73 1    
     4    1   74 1    
     5    2    3 2    
     6    2    4 am   BACKBONE|DICT|INTERRES
     7    4    5 1    
     8    4   75 1    
     9    5    6 1    
    10    5   35 1    
    11    5   76 1    
    12    6    7 1    
    13    6   77 1    
    14    6   78 1    
    15    7    8 1    
    16    8    9 1    
    17    8   79 1    
    18    8   80 1    
    19    9   10 ar   
    20    9   14 ar   
    21   10   11 ar   
    22   10   81 1    
    23   11   12 ar   
    24   11   71 1    
    25   12   13 ar   
    26   12   82 1    
    27   13   14 ar   
    28   13   15 1    
    29   14   83 1    
    30   15   16 1    
    31   15   84 1    
    32   15   85 1    
    33   16   17 1    
    34   17   18 1    
    35   17   86 1    
    36   17   87 1    
    37   18   19 1    
    38   18   37 1    
    39   18   88 1    
    40   19   20 am   BACKBONE|DICT|INTERRES
    41   19   89 1    
    42   20   21 2    
    43   20   22 1    
    44   22   23 1    
    45   22   24 1    
    46   22   90 1    
    47   23   91 1    
    48   23   92 1    
    49   23   93 1    
    50   24   25 am   BACKBONE|DICT|INTERRES
    51   24   94 1    
    52   25   26 2    
    53   25   27 1    
    54   27   28 1    
    55   27   29 1    
    56   27   95 1    
    57   28   96 1    
    58   28   97 1    
    59   28   98 1    
    60   29   30 am   BACKBONE|DICT|INTERRES
    61   29   99 1    
    62   30   31 2    
    63   30   32 1    
    64   32   33 1    
    65   32   34 1    
    66   32  100 1    
    67   33  101 1    
    68   33  102 1    
    69   33  103 1    
    70   34   35 am   BACKBONE|DICT|INTERRES
    71   34  104 1    
    72   35   36 2    
    73   37   38 2    
    74   37   39 am   BACKBONE|DICT|INTERRES
    75   39   40 1    
    76   39  105 1    
    77   40   41 1    
    78   40   42 1    
    79   40  106 1    
    80   41  107 1    
    81   41  108 1    
    82   41  109 1    
    83   42   43 2    
    84   42   44 am   BACKBONE|DICT|INTERRES
    85   44   45 1    
    86   44  110 1    
    87   45   46 1    
    88   45   47 1    
    89   45  111 1    
    90   46  112 1    
    91   46  113 1    
    92   46  114 1    
    93   47   48 2    
    94   47   49 am   BACKBONE|DICT|INTERRES
    95   49   50 1    
    96   49  115 1    
    97   50   51 1    
    98   50   52 1    
    99   50  116 1    
   100   51  117 1    
   101   51  118 1    
   102   51  119 1    
   103   52   53 2    
   104   52   54 am   BACKBONE|DICT|INTERRES
   105   54   55 1    
   106   54  120 1    
   107   55   56 1    
   108   55   57 1    
   109   55  121 1    
   110   56  122 1    
   111   56  123 1    
   112   56  124 1    
   113   57   58 2    
   114   57   59 am   BACKBONE|DICT|INTERRES
   115   59   60 1    
   116   59  125 1    
   117   60   61 1    
   118   60   62 1    
   119   60  126 1    
   120   61  127 1    
   121   61  128 1    
   122   61  129 1    
   123   62   63 2    
   124   62   64 am   BACKBONE|DICT|INTERRES
   125   64   65 1    
   126   64  130 1    
   127   65   66 1    
   128   65   69 1    
   129   65  131 1    
   130   66   67 am   BACKBONE|DICT|INTERRES
   131   66   68 2    
   132   67  132 1    
   133   67  133 1    
   134   69   70 1    
   135   69  134 1    
   136   69  135 1    
   137   70   71 1    
   138   71  136 1    
   139   71  137 1    
@<TRIPOS>SUBSTRUCTURE
     1 UNK         1 GROUP             0       ****    0 ROOT    
