@<TRIPOS>MOLECULE
3R137
137   139    1
SMALL
USER_CHARGES


@<TRIPOS>ATOM
      1 CA         23.8923   -5.3381   -6.2628 C.3       0 UNK        -0.2020 
      2 C          24.7220   -5.1982   -4.9960 C.2       0 UNK         0.4855 
      3 O          24.1660   -5.2343   -3.8979 O.2       0 UNK        -0.5197 
      4 N          26.0447   -5.0314   -5.1432 N.am      1 UNK        -0.4892 
      5 CA         27.0274   -4.8418   -4.0676 C.3       1 UNK         0.0835 
      6 C6         28.4503   -4.6695   -4.6525 C.3       12 UNK        -0.0855 
      7 S7         29.7641   -4.9751   -3.4290 S.3       12 UNK        -0.2931 
      8 C8         31.0902   -3.8913   -4.0706 C.3       12 UNK         0.0378 
      9 C9         30.9997   -2.4086   -3.6956 C.ar      12 UNK        -0.0802 
     10 C10        31.8419   -1.5111   -4.3606 C.ar      12 UNK        -0.0944 
     11 C11        31.8637   -0.1543   -4.0215 C.ar      12 UNK        -0.0787 
     12 C12        31.0241    0.3120   -3.0077 C.ar      12 UNK        -0.0862 
     13 C13        30.1800   -0.5688   -2.3267 C.ar      12 UNK        -0.0733 
     14 C14        30.1659   -1.9234   -2.6776 C.ar      12 UNK        -0.0832 
     15 C15        29.3279   -0.0687   -1.1695 C.3       12 UNK         0.0240 
     16 S16        27.5986    0.2029   -1.6542 S.3       12 UNK        -0.2522 
     17 C17        27.6989    1.7107   -2.6712 C.3       12 UNK        -0.0967 
     18 CA         27.6213    1.4261   -4.1925 C.3       5 UNK         0.0660 
     19 N          26.4706    0.5899   -4.5639 N.am      5 UNK        -0.4015 
     20 C          26.2387    0.1155   -5.7965 C.2       4 UNK         0.4946 
     21 O          26.9800    0.3452   -6.7535 O.2       4 UNK        -0.5353 
     22 CA         24.9623   -0.7142   -6.0238 C.3       4 UNK         0.0277 
     23 CB         25.1969   -1.8731   -7.0097 C.3       4 UNK        -0.1981 
     24 N          24.4037   -1.2562   -4.7811 N.am      4 UNK        -0.4209 
     25 C          23.1236   -1.1342   -4.3967 C.2       3 UNK         0.4942 
     26 O          22.3004   -0.4473   -5.0031 O.2       3 UNK        -0.5208 
     27 CA         22.6480   -1.9148   -3.1541 C.3       3 UNK         0.0250 
     28 CB         21.5515   -2.9248   -3.5359 C.3       3 UNK        -0.1990 
     29 N          23.7275   -2.6316   -2.4726 N.am      3 UNK        -0.4232 
     30 C          24.4778   -2.1166   -1.4884 C.2       2 UNK         0.4993 
     31 O          24.2786   -1.0076   -0.9923 O.2       2 UNK        -0.5286 
     32 CA         25.6602   -2.9657   -0.9764 C.3       2 UNK         0.0209 
     33 CB         25.2711   -3.6986    0.3177 C.3       2 UNK        -0.1931 
     34 N          26.1791   -3.9420   -1.9425 N.am      2 UNK        -0.4546 
     35 C          26.6401   -3.6516   -3.1676 C.2       1 UNK         0.5154 
     36 O          26.6910   -2.5105   -3.6264 O.2       1 UNK        -0.5181 
     37 C          27.6392    2.7528   -4.9787 C.2       5 UNK         0.5014 
     38 O          28.6644    3.1117   -5.5585 O.2       5 UNK        -0.5248 
     39 N          26.4814    3.4304   -5.0216 N.am      6 UNK        -0.4434 
     40 CA         26.2672    4.6825   -5.7551 C.3       6 UNK         0.0363 
     41 CB         24.9506    5.3225   -5.2859 C.3       6 UNK        -0.1936 
     42 C          26.2627    4.5065   -7.2848 C.2       6 UNK         0.5081 
     43 O          26.5160    5.4736   -8.0029 O.2       6 UNK        -0.5248 
     44 N          25.9900    3.2823   -7.7568 N.am      7 UNK        -0.4718 
     45 CA         26.0502    2.8970   -9.1689 C.3       7 UNK         0.0273 
     46 CB         25.0998    1.7102   -9.4049 C.3       7 UNK        -0.1935 
     47 C          27.4794    2.5571   -9.6368 C.2       7 UNK         0.5018 
     48 O          27.6702    2.3497  -10.8356 O.2       7 UNK        -0.5186 
     49 N          28.4405    2.5105   -8.6993 N.am      8 UNK        -0.4240 
     50 CA         29.8540    2.1685   -8.8708 C.3       8 UNK         0.0235 
     51 CB         30.5795    3.2000   -9.7608 C.3       8 UNK        -0.2000 
     52 C          30.0317    0.7204   -9.3558 C.2       8 UNK         0.4941 
     53 O          30.4472    0.4890  -10.4943 O.2       8 UNK        -0.5273 
     54 N          29.6966   -0.2321   -8.4752 N.am      9 UNK        -0.4262 
     55 CA         29.8566   -1.6793   -8.6490 C.3       9 UNK         0.0264 
     56 CB         29.1474   -2.3844   -7.4818 C.3       9 UNK        -0.1955 
     57 C          31.3343   -2.1106   -8.7672 C.2       9 UNK         0.5031 
     58 O          31.8918   -2.6866   -7.8292 O.2       9 UNK        -0.5390 
     59 N          31.9429   -1.7931   -9.9175 N.am      10 UNK        -0.4204 
     60 CA         33.3490   -1.9576  -10.3043 C.3       10 UNK         0.0237 
     61 CB         33.8053   -3.4304  -10.2530 C.3       10 UNK        -0.1985 
     62 C          34.2825   -1.0292   -9.5122 C.2       10 UNK         0.4970 
     63 O          34.9183   -0.1629  -10.1133 O.2       10 UNK        -0.4914 
     64 N          34.3205   -1.2141   -8.1874 N.am      11 UNK        -0.4285 
     65 CA         35.0279   -0.3792   -7.2014 C.3       11 UNK         0.1007 
     66 C          36.5773   -0.3114   -7.3722 C.2       11 UNK         0.5703 
     67 N          37.2059   -1.2689   -8.0440 N.am      11 UNK        -0.7361 
     68 O          37.2281    0.5971   -6.8606 O.2       11 UNK        -0.4986 
     69 C69        34.3623    1.0186   -7.0303 C.3       12 UNK        -0.0947 
     70 S70        32.6235    0.8835   -6.4916 S.3       12 UNK        -0.2240 
     71 C71        32.8545    0.7889   -4.6892 C.3       12 UNK         0.0194 
     72 H72        23.3729   -6.2960   -6.2658 H         1 UNK         0.0906 
     73 H73        23.1455   -4.5463   -6.3111 H         1 UNK         0.0906 
     74 H74        24.5048   -5.2812   -7.1623 H         1 UNK         0.0906 
     75 H75        26.4253   -5.0087   -6.0781 H         1 UNK         0.3140 
     76 H76        27.0114   -5.7547   -3.4683 H         1 UNK         0.1085 
     77 H77        28.6114   -5.3734   -5.4707 H         1 UNK         0.0836 
     78 H78        28.5724   -3.6747   -5.0822 H         1 UNK         0.0836 
     79 H79        31.1316   -3.9915   -5.1570 H         1 UNK         0.0731 
     80 H80        32.0409   -4.2718   -3.6950 H         1 UNK         0.0731 
     81 H81        32.5034   -1.8737   -5.1363 H         1 UNK         0.1312 
     82 H82        31.0502    1.3557   -2.7259 H         1 UNK         0.1406 
     83 H83        29.5165   -2.5938   -2.1333 H         1 UNK         0.1631 
     84 H84        29.7399    0.8499   -0.7489 H         1 UNK         0.0717 
     85 H85        29.3497   -0.8035   -0.3634 H         1 UNK         0.0717 
     86 H86        26.8811    2.3625   -2.3574 H         1 UNK         0.0934 
     87 H87        28.6174    2.2490   -2.4298 H         1 UNK         0.0934 
     88 H88        28.5170    0.8690   -4.4766 H         1 UNK         0.0739 
     89 H89        25.8523    0.3202   -3.8130 H         1 UNK         0.3093 
     90 H90        24.2527   -0.0256   -6.4863 H         1 UNK         0.0818 
     91 H91        25.5929   -1.5163   -7.9612 H         1 UNK         0.0819 
     92 H92        25.9072   -2.5950   -6.6084 H         1 UNK         0.0819 
     93 H93        24.2678   -2.3988   -7.2279 H         1 UNK         0.0819 
     94 H94        25.0538   -1.8003   -4.2165 H         1 UNK         0.3041 
     95 H95        22.2056   -1.1876   -2.4699 H         1 UNK         0.0784 
     96 H96        20.6963   -2.4232   -3.9908 H         1 UNK         0.0793 
     97 H97        21.9129   -3.6642   -4.2507 H         1 UNK         0.0793 
     98 H98        21.1825   -3.4588   -2.6601 H         1 UNK         0.0793 
     99 H99        23.9505   -3.5585   -2.8265 H         1 UNK         0.3024 
    100 H100       26.4732   -2.2765   -0.7443 H         1 UNK         0.1171 
    101 H101       26.1242   -4.2208    0.7514 H         1 UNK         0.0786 
    102 H102       24.9081   -2.9965    1.0699 H         1 UNK         0.0786 
    103 H103       24.4798   -4.4293    0.1449 H         1 UNK         0.0786 
    104 H104       26.1242   -4.9124   -1.6676 H         1 UNK         0.2977 
    105 H105       25.6856    3.0563   -4.5247 H         1 UNK         0.3127 
    106 H106       27.0855    5.3629   -5.5088 H         1 UNK         0.0770 
    107 H107       24.0922    4.6828   -5.4949 H         1 UNK         0.0814 
    108 H108       24.7778    6.2736   -5.7917 H         1 UNK         0.0814 
    109 H109       24.9668    5.5268   -4.2151 H         1 UNK         0.0814 
    110 H110       25.8309    2.5359   -7.0956 H         1 UNK         0.2983 
    111 H111       25.7027    3.7342   -9.7785 H         1 UNK         0.0947 
    112 H112       25.0548    1.4530  -10.4640 H         1 UNK         0.0806 
    113 H113       24.0836    1.9427   -9.0863 H         1 UNK         0.0806 
    114 H114       25.4258    0.8181   -8.8711 H         1 UNK         0.0806 
    115 H115       28.1566    2.6702   -7.7404 H         1 UNK         0.3000 
    116 H116       30.3019    2.2280   -7.8776 H         1 UNK         0.0850 
    117 H117       31.6471    2.9820   -9.8102 H         1 UNK         0.0810 
    118 H118       30.4718    4.2095   -9.3646 H         1 UNK         0.0810 
    119 H119       30.2020    3.1985  -10.7837 H         1 UNK         0.0810 
    120 H120       29.3000    0.0605   -7.5916 H         1 UNK         0.3040 
    121 H121       29.3524   -1.9685   -9.5732 H         1 UNK         0.0766 
    122 H122       28.0842   -2.1511   -7.4691 H         1 UNK         0.0812 
    123 H123       29.5676   -2.0824   -6.5213 H         1 UNK         0.0812 
    124 H124       29.2436   -3.4681   -7.5597 H         1 UNK         0.0812 
    125 H125       31.4041   -1.1845  -10.5305 H         1 UNK         0.3205 
    126 H126       33.4032   -1.6406  -11.3471 H         1 UNK         0.0754 
    127 H127       34.8244   -3.5325  -10.6281 H         1 UNK         0.0769 
    128 H128       33.1682   -4.0611  -10.8729 H         1 UNK         0.0769 
    129 H129       33.7920   -3.8370   -9.2416 H         1 UNK         0.0769 
    130 H130       33.6937   -1.9176   -7.8078 H         1 UNK         0.2981 
    131 H131       34.9031   -0.9060   -6.2552 H         1 UNK         0.0541 
    132 H132       36.6868   -2.0252   -8.4597 H         1 UNK         0.3459 
    133 H133       38.2081   -1.2275   -8.1421 H         1 UNK         0.3459 
    134 H134       34.3923    1.5746   -7.9684 H         1 UNK         0.0612 
    135 H135       34.8987    1.6289   -6.3018 H         1 UNK         0.0612 
    136 H136       33.8603    0.4369   -4.4570 H         1 UNK         0.0624 
    137 H137       32.7801    1.7964   -4.2774 H         1 UNK         0.0624 
@<TRIPOS>BOND
     1    1    2 1    
     2    1   72 1    
     3    1   73 1    
     4    1   74 1    
     5    2    3 2    
     6    2    4 am   BACKBONE|DICT|INTERRES
     7    4    5 1    
     8    4   75 1    
     9    5    6 1    
    10    5   35 1    
    11    5   76 1    
    12    6    7 1    
    13    6   77 1    
    14    6   78 1    
    15    7    8 1    
    16    8    9 1    
    17    8   79 1    
    18    8   80 1    
    19    9   10 ar   
    20    9   14 ar   
    21   10   11 ar   
    22   10   81 1    
    23   11   12 ar   
    24   11   71 1    
    25   12   13 ar   
    26   12   82 1    
    27   13   14 ar   
    28   13   15 1    
    29   14   83 1    
    30   15   16 1    
    31   15   84 1    
    32   15   85 1    
    33   16   17 1    
    34   17   18 1    
    35   17   86 1    
    36   17   87 1    
    37   18   19 1    
    38   18   37 1    
    39   18   88 1    
    40   19   20 am   BACKBONE|DICT|INTERRES
    41   19   89 1    
    42   20   21 2    
    43   20   22 1    
    44   22   23 1    
    45   22   24 1    
    46   22   90 1    
    47   23   91 1    
    48   23   92 1    
    49   23   93 1    
    50   24   25 am   BACKBONE|DICT|INTERRES
    51   24   94 1    
    52   25   26 2    
    53   25   27 1    
    54   27   28 1    
    55   27   29 1    
    56   27   95 1    
    57   28   96 1    
    58   28   97 1    
    59   28   98 1    
    60   29   30 am   BACKBONE|DICT|INTERRES
    61   29   99 1    
    62   30   31 2    
    63   30   32 1    
    64   32   33 1    
    65   32   34 1    
    66   32  100 1    
    67   33  101 1    
    68   33  102 1    
    69   33  103 1    
    70   34   35 am   BACKBONE|DICT|INTERRES
    71   34  104 1    
    72   35   36 2    
    73   37   38 2    
    74   37   39 am   BACKBONE|DICT|INTERRES
    75   39   40 1    
    76   39  105 1    
    77   40   41 1    
    78   40   42 1    
    79   40  106 1    
    80   41  107 1    
    81   41  108 1    
    82   41  109 1    
    83   42   43 2    
    84   42   44 am   BACKBONE|DICT|INTERRES
    85   44   45 1    
    86   44  110 1    
    87   45   46 1    
    88   45   47 1    
    89   45  111 1    
    90   46  112 1    
    91   46  113 1    
    92   46  114 1    
    93   47   48 2    
    94   47   49 am   BACKBONE|DICT|INTERRES
    95   49   50 1    
    96   49  115 1    
    97   50   51 1    
    98   50   52 1    
    99   50  116 1    
   100   51  117 1    
   101   51  118 1    
   102   51  119 1    
   103   52   53 2    
   104   52   54 am   BACKBONE|DICT|INTERRES
   105   54   55 1    
   106   54  120 1    
   107   55   56 1    
   108   55   57 1    
   109   55  121 1    
   110   56  122 1    
   111   56  123 1    
   112   56  124 1    
   113   57   58 2    
   114   57   59 am   BACKBONE|DICT|INTERRES
   115   59   60 1    
   116   59  125 1    
   117   60   61 1    
   118   60   62 1    
   119   60  126 1    
   120   61  127 1    
   121   61  128 1    
   122   61  129 1    
   123   62   63 2    
   124   62   64 am   BACKBONE|DICT|INTERRES
   125   64   65 1    
   126   64  130 1    
   127   65   66 1    
   128   65   69 1    
   129   65  131 1    
   130   66   67 am   BACKBONE|DICT|INTERRES
   131   66   68 2    
   132   67  132 1    
   133   67  133 1    
   134   69   70 1    
   135   69  134 1    
   136   69  135 1    
   137   70   71 1    
   138   71  136 1    
   139   71  137 1    
@<TRIPOS>SUBSTRUCTURE
     1 UNK         1 GROUP             0       ****    0 ROOT    
