@<TRIPOS>MOLECULE
3R137
137   139    1
SMALL
USER_CHARGES


@<TRIPOS>ATOM
      1 CA         26.7457   -6.8294   -6.1768 C.3       0 UNK        -0.2020 
      2 C          26.8399   -6.5155   -4.6909 C.2       0 UNK         0.4855 
      3 O          26.6473   -7.4053   -3.8621 O.2       0 UNK        -0.5197 
      4 N          27.1336   -5.2582   -4.3486 N.am      1 UNK        -0.4892 
      5 CA         27.2476   -4.7517   -2.9846 C.3       1 UNK         0.0835 
      6 C6         28.6852   -4.9413   -2.4388 C.3       12 UNK        -0.0855 
      7 S7         28.8441   -4.5285   -0.6676 S.3       12 UNK        -0.2931 
      8 C8         30.6421   -4.2709   -0.5073 C.3       12 UNK         0.0378 
      9 C9         31.1580   -3.1178   -1.3613 C.ar      12 UNK        -0.0802 
     10 C10        32.1111   -3.3538   -2.3571 C.ar      12 UNK        -0.0944 
     11 C11        32.6141   -2.3055   -3.1343 C.ar      12 UNK        -0.0787 
     12 C12        32.1353   -1.0080   -2.9111 C.ar      12 UNK        -0.0862 
     13 C13        31.1820   -0.7546   -1.9188 C.ar      12 UNK        -0.0733 
     14 C14        30.7009   -1.8146   -1.1445 C.ar      12 UNK        -0.0832 
     15 C15        30.6948    0.6664   -1.6544 C.3       12 UNK         0.0240 
     16 S16        30.1567    1.5391   -3.1614 S.3       12 UNK        -0.2522 
     17 C17        28.6571    0.6061   -3.6058 C.3       12 UNK        -0.0967 
     18 CA         28.2516    0.8288   -5.0827 C.3       5 UNK         0.0660 
     19 N          27.4167   -0.2614   -5.5918 N.am      5 UNK        -0.4015 
     20 C          27.0948   -0.4444   -6.8788 C.2       4 UNK         0.4946 
     21 O          27.5805    0.2122   -7.7985 O.2       4 UNK        -0.5353 
     22 CA         26.0465   -1.5211   -7.2025 C.3       4 UNK         0.0277 
     23 CB         26.7074   -2.8711   -7.5179 C.3       4 UNK        -0.1981 
     24 N          25.0693   -1.6837   -6.1248 N.am      4 UNK        -0.4209 
     25 C          24.0961   -0.8027   -5.8551 C.2       3 UNK         0.4942 
     26 O          23.8837    0.2076   -6.5252 O.2       3 UNK        -0.5208 
     27 CA         23.2505   -1.0747   -4.5987 C.3       3 UNK         0.0250 
     28 CB         22.1571   -2.1140   -4.8928 C.3       3 UNK        -0.1990 
     29 N          24.0574   -1.5147   -3.4550 N.am      3 UNK        -0.4232 
     30 C          24.9743   -0.7506   -2.8444 C.2       2 UNK         0.4993 
     31 O          25.2138    0.4128   -3.1642 O.2       2 UNK        -0.5286 
     32 CA         25.8016   -1.3985   -1.7211 C.3       2 UNK         0.0209 
     33 CB         25.0694   -1.2747   -0.3758 C.3       2 UNK        -0.1931 
     34 N          26.1742   -2.8003   -1.9487 N.am      2 UNK        -0.4546 
     35 C          26.8222   -3.2746   -3.0222 C.2       1 UNK         0.5154 
     36 O          27.0870   -2.5971   -4.0195 O.2       1 UNK        -0.5181 
     37 C          27.5779    2.1980   -5.3061 C.2       5 UNK         0.5014 
     38 O          28.2132    3.1016   -5.8496 O.2       5 UNK        -0.5248 
     39 N          26.2887    2.3107   -4.9507 N.am      6 UNK        -0.4434 
     40 CA         25.4523    3.4927   -5.1887 C.3       6 UNK         0.0363 
     41 CB         24.0818    3.2945   -4.5225 C.3       6 UNK        -0.1936 
     42 C          25.2864    3.8335   -6.6814 C.2       6 UNK         0.5081 
     43 O          25.2415    5.0128   -7.0317 O.2       6 UNK        -0.5248 
     44 N          25.2398    2.8022   -7.5355 N.am      7 UNK        -0.4718 
     45 CA         25.2359    2.9225   -8.9967 C.3       7 UNK         0.0273 
     46 CB         24.6882    1.6174   -9.5982 C.3       7 UNK        -0.1935 
     47 C          26.6182    3.2489   -9.6008 C.2       7 UNK         0.5018 
     48 O          26.6886    3.4990  -10.8047 O.2       7 UNK        -0.5186 
     49 N          27.6825    3.2167   -8.7819 N.am      8 UNK        -0.4240 
     50 CA         29.0985    3.3840   -9.1364 C.3       8 UNK         0.0235 
     51 CB         29.3766    4.8091   -9.6607 C.3       8 UNK        -0.2000 
     52 C          29.6304    2.2802  -10.0742 C.2       8 UNK         0.4941 
     53 O          30.5503    2.5304  -10.8556 O.2       8 UNK        -0.5273 
     54 N          29.0483    1.0788   -9.9761 N.am      9 UNK        -0.4262 
     55 CA         29.4215   -0.1083  -10.7417 C.3       9 UNK         0.0264 
     56 CB         28.1456   -0.8732  -11.1317 C.3       9 UNK        -0.1955 
     57 C          30.3737   -1.0194   -9.9520 C.2       9 UNK         0.5031 
     58 O          31.2289   -1.6601  -10.5653 O.2       9 UNK        -0.5390 
     59 N          30.2160   -1.0788   -8.6209 N.am      10 UNK        -0.4204 
     60 CA         31.0740   -1.8683   -7.7343 C.3       10 UNK         0.0237 
     61 CB         30.3578   -2.1316   -6.3978 C.3       10 UNK        -0.1985 
     62 C          32.4122   -1.1512   -7.4998 C.2       10 UNK         0.4970 
     63 O          32.3995    0.0030   -7.0669 O.2       10 UNK        -0.4914 
     64 N          33.5136   -1.8712   -7.7608 N.am      11 UNK        -0.4285 
     65 CA         34.9232   -1.4789   -7.5733 C.3       11 UNK         0.1007 
     66 C          35.2843   -0.0316   -8.0313 C.2       11 UNK         0.5703 
     67 N          36.0623    0.7232   -7.2661 N.am      11 UNK        -0.7361 
     68 O          34.9140    0.3858   -9.1270 O.2       11 UNK        -0.4986 
     69 C69        35.5068   -1.9416   -6.2022 C.3       12 UNK        -0.0947 
     70 S70        34.7027   -1.2276   -4.7275 S.3       12 UNK        -0.2240 
     71 C71        33.6441   -2.6261   -4.2188 C.3       12 UNK         0.0194 
     72 H72        27.4269   -7.6407   -6.4323 H         1 UNK         0.0906 
     73 H73        25.7332   -7.1423   -6.4306 H         1 UNK         0.0906 
     74 H74        27.0003   -5.9686   -6.7945 H         1 UNK         0.0906 
     75 H75        27.2569   -4.5410   -5.0512 H         1 UNK         0.3140 
     76 H76        26.5447   -5.2934   -2.3471 H         1 UNK         0.1085 
     77 H77        29.3891   -4.3496   -3.0268 H         1 UNK         0.0836 
     78 H78        28.9937   -5.9809   -2.5596 H         1 UNK         0.0836 
     79 H79        31.1536   -5.2016   -0.7582 H         1 UNK         0.0731 
     80 H80        30.8759   -4.0671    0.5385 H         1 UNK         0.0731 
     81 H81        32.4672   -4.3609   -2.5278 H         1 UNK         0.1312 
     82 H82        32.4966   -0.1839   -3.5098 H         1 UNK         0.1406 
     83 H83        29.9689   -1.6312   -0.3693 H         1 UNK         0.1631 
     84 H84        31.5081    1.2313   -1.1971 H         1 UNK         0.0717 
     85 H85        29.8739    0.6715   -0.9355 H         1 UNK         0.0717 
     86 H86        28.8593   -0.4532   -3.4374 H         1 UNK         0.0934 
     87 H87        27.8531    0.8762   -2.9200 H         1 UNK         0.0934 
     88 H88        29.1615    0.8247   -5.6869 H         1 UNK         0.0739 
     89 H89        27.0626   -0.9265   -4.9101 H         1 UNK         0.3093 
     90 H90        25.5149   -1.1963   -8.0988 H         1 UNK         0.0818 
     91 H91        27.1918   -3.2994   -6.6424 H         1 UNK         0.0819 
     92 H92        25.9741   -3.5922   -7.8794 H         1 UNK         0.0819 
     93 H93        27.4658   -2.7665   -8.2950 H         1 UNK         0.0819 
     94 H94        25.2135   -2.4539   -5.4878 H         1 UNK         0.3041 
     95 H95        22.7632   -0.1369   -4.3225 H         1 UNK         0.0784 
     96 H96        21.5358   -1.7981   -5.7322 H         1 UNK         0.0793 
     97 H97        22.5779   -3.0876   -5.1471 H         1 UNK         0.0793 
     98 H98        21.4963   -2.2471   -4.0360 H         1 UNK         0.0793 
     99 H99        23.9219   -2.4598   -3.1266 H         1 UNK         0.3024 
    100 H100       26.7330   -0.8343   -1.6471 H         1 UNK         0.1171 
    101 H101       25.6967   -1.6110    0.4501 H         1 UNK         0.0786 
    102 H102       24.7993   -0.2374   -0.1716 H         1 UNK         0.0786 
    103 H103       24.1495   -1.8605   -0.3599 H         1 UNK         0.0786 
    104 H104       26.0145   -3.4307   -1.1754 H         1 UNK         0.2977 
    105 H105       25.8492    1.5387   -4.4501 H         1 UNK         0.3127 
    106 H106       25.9442    4.3428   -4.7115 H         1 UNK         0.0770 
    107 H107       23.5503    2.4390   -4.9406 H         1 UNK         0.0814 
    108 H108       23.4492    4.1723   -4.6607 H         1 UNK         0.0814 
    109 H109       24.1824    3.1323   -3.4492 H         1 UNK         0.0814 
    110 H110       25.2057    1.8634   -7.1552 H         1 UNK         0.2983 
    111 H111       24.5617    3.7359   -9.2738 H         1 UNK         0.0947 
    112 H112       24.5709    1.7041  -10.6792 H         1 UNK         0.0806 
    113 H113       23.7108    1.3660   -9.1856 H         1 UNK         0.0806 
    114 H114       25.3584    0.7785   -9.4125 H         1 UNK         0.0806 
    115 H115       27.5171    3.0085   -7.8029 H         1 UNK         0.3000 
    116 H116       29.6526    3.2672   -8.2040 H         1 UNK         0.0850 
    117 H117       30.4475    4.9822   -9.7733 H         1 UNK         0.0810 
    118 H118       28.9985    5.5649   -8.9724 H         1 UNK         0.0810 
    119 H119       28.9170    4.9803  -10.6345 H         1 UNK         0.0810 
    120 H120       28.3350    0.9450   -9.2603 H         1 UNK         0.3040 
    121 H121       29.9304    0.1895  -11.6611 H         1 UNK         0.0766 
    122 H122       27.4897   -0.2567  -11.7467 H         1 UNK         0.0812 
    123 H123       27.5784   -1.1913  -10.2565 H         1 UNK         0.0812 
    124 H124       28.3866   -1.7669  -11.7089 H         1 UNK         0.0812 
    125 H125       29.4999   -0.5059   -8.1908 H         1 UNK         0.3205 
    126 H126       31.2564   -2.8358   -8.2075 H         1 UNK         0.0754 
    127 H127       30.9211   -2.8342   -5.7849 H         1 UNK         0.0769 
    128 H128       29.3741   -2.5685   -6.5489 H         1 UNK         0.0769 
    129 H129       30.2395   -1.2221   -5.8100 H         1 UNK         0.0769 
    130 H130       33.3856   -2.7925   -8.1523 H         1 UNK         0.2981 
    131 H131       35.4479   -2.0862   -8.3118 H         1 UNK         0.0541 
    132 H132       36.3585    0.3958   -6.3599 H         1 UNK         0.3459 
    133 H133       36.3138    1.6479   -7.5778 H         1 UNK         0.3459 
    134 H134       35.4459   -3.0289   -6.1379 H         1 UNK         0.0612 
    135 H135       36.5742   -1.7220   -6.1486 H         1 UNK         0.0612 
    136 H136       34.2971   -3.4296   -3.8746 H         1 UNK         0.0624 
    137 H137       33.1181   -3.0097   -5.0918 H         1 UNK         0.0624 
@<TRIPOS>BOND
     1    1    2 1    
     2    1   72 1    
     3    1   73 1    
     4    1   74 1    
     5    2    3 2    
     6    2    4 am   BACKBONE|DICT|INTERRES
     7    4    5 1    
     8    4   75 1    
     9    5    6 1    
    10    5   35 1    
    11    5   76 1    
    12    6    7 1    
    13    6   77 1    
    14    6   78 1    
    15    7    8 1    
    16    8    9 1    
    17    8   79 1    
    18    8   80 1    
    19    9   10 ar   
    20    9   14 ar   
    21   10   11 ar   
    22   10   81 1    
    23   11   12 ar   
    24   11   71 1    
    25   12   13 ar   
    26   12   82 1    
    27   13   14 ar   
    28   13   15 1    
    29   14   83 1    
    30   15   16 1    
    31   15   84 1    
    32   15   85 1    
    33   16   17 1    
    34   17   18 1    
    35   17   86 1    
    36   17   87 1    
    37   18   19 1    
    38   18   37 1    
    39   18   88 1    
    40   19   20 am   BACKBONE|DICT|INTERRES
    41   19   89 1    
    42   20   21 2    
    43   20   22 1    
    44   22   23 1    
    45   22   24 1    
    46   22   90 1    
    47   23   91 1    
    48   23   92 1    
    49   23   93 1    
    50   24   25 am   BACKBONE|DICT|INTERRES
    51   24   94 1    
    52   25   26 2    
    53   25   27 1    
    54   27   28 1    
    55   27   29 1    
    56   27   95 1    
    57   28   96 1    
    58   28   97 1    
    59   28   98 1    
    60   29   30 am   BACKBONE|DICT|INTERRES
    61   29   99 1    
    62   30   31 2    
    63   30   32 1    
    64   32   33 1    
    65   32   34 1    
    66   32  100 1    
    67   33  101 1    
    68   33  102 1    
    69   33  103 1    
    70   34   35 am   BACKBONE|DICT|INTERRES
    71   34  104 1    
    72   35   36 2    
    73   37   38 2    
    74   37   39 am   BACKBONE|DICT|INTERRES
    75   39   40 1    
    76   39  105 1    
    77   40   41 1    
    78   40   42 1    
    79   40  106 1    
    80   41  107 1    
    81   41  108 1    
    82   41  109 1    
    83   42   43 2    
    84   42   44 am   BACKBONE|DICT|INTERRES
    85   44   45 1    
    86   44  110 1    
    87   45   46 1    
    88   45   47 1    
    89   45  111 1    
    90   46  112 1    
    91   46  113 1    
    92   46  114 1    
    93   47   48 2    
    94   47   49 am   BACKBONE|DICT|INTERRES
    95   49   50 1    
    96   49  115 1    
    97   50   51 1    
    98   50   52 1    
    99   50  116 1    
   100   51  117 1    
   101   51  118 1    
   102   51  119 1    
   103   52   53 2    
   104   52   54 am   BACKBONE|DICT|INTERRES
   105   54   55 1    
   106   54  120 1    
   107   55   56 1    
   108   55   57 1    
   109   55  121 1    
   110   56  122 1    
   111   56  123 1    
   112   56  124 1    
   113   57   58 2    
   114   57   59 am   BACKBONE|DICT|INTERRES
   115   59   60 1    
   116   59  125 1    
   117   60   61 1    
   118   60   62 1    
   119   60  126 1    
   120   61  127 1    
   121   61  128 1    
   122   61  129 1    
   123   62   63 2    
   124   62   64 am   BACKBONE|DICT|INTERRES
   125   64   65 1    
   126   64  130 1    
   127   65   66 1    
   128   65   69 1    
   129   65  131 1    
   130   66   67 am   BACKBONE|DICT|INTERRES
   131   66   68 2    
   132   67  132 1    
   133   67  133 1    
   134   69   70 1    
   135   69  134 1    
   136   69  135 1    
   137   70   71 1    
   138   71  136 1    
   139   71  137 1    
@<TRIPOS>SUBSTRUCTURE
     1 UNK         1 GROUP             0       ****    0 ROOT    
