@<TRIPOS>MOLECULE
3R137
137   139    1
SMALL
USER_CHARGES


@<TRIPOS>ATOM
      1 CA         28.4820    0.9044   -0.0339 C.3       0 UNK        -0.2020 
      2 C          28.2587   -0.3692   -0.8345 C.2       0 UNK         0.4855 
      3 O          28.0548   -0.3017   -2.0459 O.2       0 UNK        -0.5197 
      4 N          28.2889   -1.5307   -0.1696 N.am      1 UNK        -0.4892 
      5 CA         28.0911   -2.8542   -0.7713 C.3       1 UNK         0.0835 
      6 C6         28.7809   -3.9768    0.0496 C.3       12 UNK        -0.0855 
      7 S7         30.5706   -3.7147    0.2921 S.3       12 UNK        -0.2931 
      8 C8         31.2888   -4.7683   -1.0081 C.3       12 UNK         0.0378 
      9 C9         31.2553   -4.0836   -2.3660 C.ar      12 UNK        -0.0802 
     10 C10        32.1880   -3.0847   -2.6598 C.ar      12 UNK        -0.0944 
     11 C11        32.1875   -2.4555   -3.9071 C.ar      12 UNK        -0.0787 
     12 C12        31.2381   -2.8268   -4.8633 C.ar      12 UNK        -0.0862 
     13 C13        30.2936   -3.8190   -4.5800 C.ar      12 UNK        -0.0733 
     14 C14        30.3118   -4.4508   -3.3316 C.ar      12 UNK        -0.0832 
     15 C15        29.2614   -4.2142   -5.6287 C.3       12 UNK         0.0240 
     16 S16        27.5819   -3.6623   -5.1886 S.3       12 UNK        -0.2522 
     17 C17        27.7445   -1.8463   -5.2441 C.3       12 UNK        -0.0967 
     18 CA         26.9944   -1.1937   -6.4314 C.3       5 UNK         0.0660 
     19 N          25.5666   -1.5166   -6.4620 N.am      5 UNK        -0.4015 
     20 C          24.7812   -1.3862   -7.5409 C.2       4 UNK         0.4946 
     21 O          25.1937   -1.0602   -8.6537 O.2       4 UNK        -0.5353 
     22 CA         23.2761   -1.6510   -7.3527 C.3       4 UNK         0.0277 
     23 CB         22.9510   -3.1248   -7.6450 C.3       4 UNK        -0.1981 
     24 N          22.7850   -1.3014   -6.0171 N.am      4 UNK        -0.4209 
     25 C          22.7352   -0.0551   -5.5237 C.2       3 UNK         0.4942 
     26 O          23.0539    0.9473   -6.1603 O.2       3 UNK        -0.5208 
     27 CA         22.3243    0.0867   -4.0467 C.3       3 UNK         0.0250 
     28 CB         20.7944    0.1434   -3.9122 C.3       3 UNK        -0.1990 
     29 N          22.8593   -0.9825   -3.1938 N.am      3 UNK        -0.4232 
     30 C          24.1649   -1.2455   -3.0471 C.2       2 UNK         0.4993 
     31 O          25.0569   -0.5958   -3.5989 O.2       2 UNK        -0.5286 
     32 CA         24.5321   -2.4777   -2.2167 C.3       2 UNK         0.0209 
     33 CB         24.2287   -3.7682   -3.0060 C.3       2 UNK        -0.1931 
     34 N          25.9537   -2.4063   -1.8882 N.am      2 UNK        -0.4546 
     35 C          26.5836   -3.1313   -0.9605 C.2       1 UNK         0.5154 
     36 O          26.0121   -3.9614   -0.2496 O.2       1 UNK        -0.5181 
     37 C          27.1836    0.3329   -6.4060 C.2       5 UNK         0.5014 
     38 O          27.9541    0.8602   -7.2069 O.2       5 UNK        -0.5248 
     39 N          26.4599    1.0119   -5.5026 N.am      6 UNK        -0.4434 
     40 CA         26.4952    2.4637   -5.3039 C.3       6 UNK         0.0363 
     41 CB         25.6427    2.8248   -4.0775 C.3       6 UNK        -0.1936 
     42 C          26.0468    3.2730   -6.5343 C.2       6 UNK         0.5081 
     43 O          26.5860    4.3529   -6.7754 O.2       6 UNK        -0.5248 
     44 N          25.0874    2.7356   -7.2991 N.am      7 UNK        -0.4718 
     45 CA         24.6082    3.3002   -8.5639 C.3       7 UNK         0.0273 
     46 CB         23.2288    2.6984   -8.8814 C.3       7 UNK        -0.1935 
     47 C          25.5690    3.0876   -9.7514 C.2       7 UNK         0.5018 
     48 O          25.3345    3.6730  -10.8104 O.2       7 UNK        -0.5186 
     49 N          26.6021    2.2539   -9.5806 N.am      8 UNK        -0.4240 
     50 CA         27.5911    1.9034  -10.5974 C.3       8 UNK         0.0235 
     51 CB         27.4100    0.4149  -10.9636 C.3       8 UNK        -0.2000 
     52 C          28.9991    2.2476  -10.0794 C.2       8 UNK         0.4941 
     53 O          29.1646    3.2422   -9.3689 O.2       8 UNK        -0.5273 
     54 N          29.9935    1.4375  -10.4539 N.am      9 UNK        -0.4262 
     55 CA         31.3790    1.5085  -10.0062 C.3       9 UNK         0.0264 
     56 CB         32.1529    2.5545  -10.8300 C.3       9 UNK        -0.1955 
     57 C          31.9893    0.1121  -10.1680 C.2       9 UNK         0.5031 
     58 O          31.5225   -0.6575  -11.0139 O.2       9 UNK        -0.5390 
     59 N          33.0231   -0.1815   -9.3730 N.am      10 UNK        -0.4204 
     60 CA         33.7711   -1.4407   -9.4061 C.3       10 UNK         0.0237 
     61 CB         32.9505   -2.5984   -8.7994 C.3       10 UNK        -0.1985 
     62 C          35.1134   -1.2903   -8.6830 C.2       10 UNK         0.4970 
     63 O          36.1502   -1.6371   -9.2492 O.2       10 UNK        -0.4914 
     64 N          35.0654   -0.7756   -7.4474 N.am      11 UNK        -0.4285 
     65 CA         36.2252   -0.6348   -6.5496 C.3       11 UNK         0.1007 
     66 C          37.1767    0.5542   -6.8777 C.2       11 UNK         0.5703 
     67 N          36.8601    1.4248   -7.8297 N.am      11 UNK        -0.7361 
     68 O          38.2316    0.6835   -6.2607 O.2       11 UNK        -0.4986 
     69 C69        35.7889   -0.6147   -5.0598 C.3       12 UNK        -0.0947 
     70 S70        34.8362   -2.0997   -4.5908 S.3       12 UNK        -0.2240 
     71 C71        33.2112   -1.3743   -4.2155 C.3       12 UNK         0.0194 
     72 H72        27.6178    1.5615   -0.1278 H         1 UNK         0.0906 
     73 H73        28.6402    0.6993    1.0247 H         1 UNK         0.0906 
     74 H74        29.3559    1.4346   -0.4115 H         1 UNK         0.0906 
     75 H75        28.4552   -1.5302    0.8269 H         1 UNK         0.3140 
     76 H76        28.5406   -2.8526   -1.7671 H         1 UNK         0.1085 
     77 H77        28.6219   -4.9469   -0.4251 H         1 UNK         0.0836 
     78 H78        28.3293   -4.0544    1.0406 H         1 UNK         0.0836 
     79 H79        32.3248   -4.9877   -0.7451 H         1 UNK         0.0731 
     80 H80        30.7775   -5.7316   -1.0391 H         1 UNK         0.0731 
     81 H81        32.9204   -2.7994   -1.9166 H         1 UNK         0.1312 
     82 H82        31.2307   -2.3393   -5.8280 H         1 UNK         0.1406 
     83 H83        29.5857   -5.2223   -3.1131 H         1 UNK         0.1631 
     84 H84        29.2577   -5.2997   -5.7362 H         1 UNK         0.0717 
     85 H85        29.5244   -3.8118   -6.6084 H         1 UNK         0.0717 
     86 H86        27.3794   -1.4588   -4.2943 H         1 UNK         0.0934 
     87 H87        28.7992   -1.5725   -5.2779 H         1 UNK         0.0934 
     88 H88        27.4454   -1.5666   -7.3539 H         1 UNK         0.0739 
     89 H89        25.1466   -1.7451   -5.5730 H         1 UNK         0.3093 
     90 H90        22.7426   -1.0314   -8.0769 H         1 UNK         0.0818 
     91 H91        21.8780   -3.3121   -7.5990 H         1 UNK         0.0819 
     92 H92        23.2838   -3.4054   -8.6454 H         1 UNK         0.0819 
     93 H93        23.4416   -3.7962   -6.9389 H         1 UNK         0.0819 
     94 H94        22.4928   -2.0633   -5.4231 H         1 UNK         0.3041 
     95 H95        22.7330    1.0317   -3.6833 H         1 UNK         0.0784 
     96 H96        20.3793    0.9439   -4.5266 H         1 UNK         0.0793 
     97 H97        20.3234   -0.7880   -4.2290 H         1 UNK         0.0793 
     98 H98        20.4935    0.3396   -2.8829 H         1 UNK         0.0793 
     99 H99        22.1841   -1.5613   -2.7142 H         1 UNK         0.3024 
    100 H100       23.9533   -2.4591   -1.2906 H         1 UNK         0.1171 
    101 H101       23.1702   -3.8405   -3.2583 H         1 UNK         0.0786 
    102 H102       24.4766   -4.6592   -2.4293 H         1 UNK         0.0786 
    103 H103       24.7912   -3.8114   -3.9391 H         1 UNK         0.0786 
    104 H104       26.4631   -1.6651   -2.3643 H         1 UNK         0.2977 
    105 H105       25.8764    0.4825   -4.8560 H         1 UNK         0.3127 
    106 H106       27.5311    2.7367   -5.0925 H         1 UNK         0.0770 
    107 H107       24.5941    2.5673   -4.2294 H         1 UNK         0.0814 
    108 H108       25.6907    3.8944   -3.8694 H         1 UNK         0.0814 
    109 H109       25.9902    2.3028   -3.1853 H         1 UNK         0.0814 
    110 H110       24.6273    1.8886   -6.9775 H         1 UNK         0.2983 
    111 H111       24.4890    4.3784   -8.4372 H         1 UNK         0.0947 
    112 H112       22.8200    3.1122   -9.8042 H         1 UNK         0.0806 
    113 H113       22.5118    2.9104   -8.0880 H         1 UNK         0.0806 
    114 H114       23.2828    1.6156   -9.0032 H         1 UNK         0.0806 
    115 H115       26.7791    1.8737   -8.6569 H         1 UNK         0.3000 
    116 H116       27.4398    2.4996  -11.4994 H         1 UNK         0.0850 
    117 H117       28.0356    0.1268  -11.8090 H         1 UNK         0.0810 
    118 H118       26.3789    0.2055  -11.2500 H         1 UNK         0.0810 
    119 H119       27.6527   -0.2387  -10.1239 H         1 UNK         0.0810 
    120 H120       29.7930    0.6165  -11.0133 H         1 UNK         0.3040 
    121 H121       31.3986    1.7799   -8.9483 H         1 UNK         0.0766 
    122 H122       33.1951    2.6128  -10.5140 H         1 UNK         0.0812 
    123 H123       31.7247    3.5500  -10.7117 H         1 UNK         0.0812 
    124 H124       32.1465    2.3126  -11.8936 H         1 UNK         0.0812 
    125 H125       33.3734    0.5354   -8.7534 H         1 UNK         0.3205 
    126 H126       33.9900   -1.6813  -10.4491 H         1 UNK         0.0754 
    127 H127       33.5296   -3.5229   -8.7876 H         1 UNK         0.0769 
    128 H128       32.0467   -2.7957   -9.3761 H         1 UNK         0.0769 
    129 H129       32.6513   -2.3887   -7.7726 H         1 UNK         0.0769 
    130 H130       34.1713   -0.5529   -7.0393 H         1 UNK         0.2981 
    131 H131       36.8392   -1.5278   -6.6835 H         1 UNK         0.0541 
    132 H132       36.0112    1.3227   -8.3588 H         1 UNK         0.3459 
    133 H133       37.4914    2.1845   -8.0302 H         1 UNK         0.3459 
    134 H134       35.2085    0.2839   -4.8430 H         1 UNK         0.0612 
    135 H135       36.6625   -0.5750   -4.4064 H         1 UNK         0.0612 
    136 H136       33.3040   -0.7007   -3.3622 H         1 UNK         0.0624 
    137 H137       32.8799   -0.7659   -5.0583 H         1 UNK         0.0624 
@<TRIPOS>BOND
     1    1    2 1    
     2    1   72 1    
     3    1   73 1    
     4    1   74 1    
     5    2    3 2    
     6    2    4 am   BACKBONE|DICT|INTERRES
     7    4    5 1    
     8    4   75 1    
     9    5    6 1    
    10    5   35 1    
    11    5   76 1    
    12    6    7 1    
    13    6   77 1    
    14    6   78 1    
    15    7    8 1    
    16    8    9 1    
    17    8   79 1    
    18    8   80 1    
    19    9   10 ar   
    20    9   14 ar   
    21   10   11 ar   
    22   10   81 1    
    23   11   12 ar   
    24   11   71 1    
    25   12   13 ar   
    26   12   82 1    
    27   13   14 ar   
    28   13   15 1    
    29   14   83 1    
    30   15   16 1    
    31   15   84 1    
    32   15   85 1    
    33   16   17 1    
    34   17   18 1    
    35   17   86 1    
    36   17   87 1    
    37   18   19 1    
    38   18   37 1    
    39   18   88 1    
    40   19   20 am   BACKBONE|DICT|INTERRES
    41   19   89 1    
    42   20   21 2    
    43   20   22 1    
    44   22   23 1    
    45   22   24 1    
    46   22   90 1    
    47   23   91 1    
    48   23   92 1    
    49   23   93 1    
    50   24   25 am   BACKBONE|DICT|INTERRES
    51   24   94 1    
    52   25   26 2    
    53   25   27 1    
    54   27   28 1    
    55   27   29 1    
    56   27   95 1    
    57   28   96 1    
    58   28   97 1    
    59   28   98 1    
    60   29   30 am   BACKBONE|DICT|INTERRES
    61   29   99 1    
    62   30   31 2    
    63   30   32 1    
    64   32   33 1    
    65   32   34 1    
    66   32  100 1    
    67   33  101 1    
    68   33  102 1    
    69   33  103 1    
    70   34   35 am   BACKBONE|DICT|INTERRES
    71   34  104 1    
    72   35   36 2    
    73   37   38 2    
    74   37   39 am   BACKBONE|DICT|INTERRES
    75   39   40 1    
    76   39  105 1    
    77   40   41 1    
    78   40   42 1    
    79   40  106 1    
    80   41  107 1    
    81   41  108 1    
    82   41  109 1    
    83   42   43 2    
    84   42   44 am   BACKBONE|DICT|INTERRES
    85   44   45 1    
    86   44  110 1    
    87   45   46 1    
    88   45   47 1    
    89   45  111 1    
    90   46  112 1    
    91   46  113 1    
    92   46  114 1    
    93   47   48 2    
    94   47   49 am   BACKBONE|DICT|INTERRES
    95   49   50 1    
    96   49  115 1    
    97   50   51 1    
    98   50   52 1    
    99   50  116 1    
   100   51  117 1    
   101   51  118 1    
   102   51  119 1    
   103   52   53 2    
   104   52   54 am   BACKBONE|DICT|INTERRES
   105   54   55 1    
   106   54  120 1    
   107   55   56 1    
   108   55   57 1    
   109   55  121 1    
   110   56  122 1    
   111   56  123 1    
   112   56  124 1    
   113   57   58 2    
   114   57   59 am   BACKBONE|DICT|INTERRES
   115   59   60 1    
   116   59  125 1    
   117   60   61 1    
   118   60   62 1    
   119   60  126 1    
   120   61  127 1    
   121   61  128 1    
   122   61  129 1    
   123   62   63 2    
   124   62   64 am   BACKBONE|DICT|INTERRES
   125   64   65 1    
   126   64  130 1    
   127   65   66 1    
   128   65   69 1    
   129   65  131 1    
   130   66   67 am   BACKBONE|DICT|INTERRES
   131   66   68 2    
   132   67  132 1    
   133   67  133 1    
   134   69   70 1    
   135   69  134 1    
   136   69  135 1    
   137   70   71 1    
   138   71  136 1    
   139   71  137 1    
@<TRIPOS>SUBSTRUCTURE
     1 UNK         1 GROUP             0       ****    0 ROOT    
