@<TRIPOS>MOLECULE
3R137
137   139    1
SMALL
USER_CHARGES


@<TRIPOS>ATOM
      1 CA         28.8963   -5.7516    0.1539 C.3       0 UNK        -0.2020 
      2 C          27.9272   -4.7752    0.8036 C.2       0 UNK         0.4855 
      3 O          26.9889   -5.1988    1.4783 O.2       0 UNK        -0.5197 
      4 N          28.1467   -3.4689    0.6031 N.am      1 UNK        -0.4892 
      5 CA         27.3110   -2.3787    1.1246 C.3       1 UNK         0.0835 
      6 C6         28.0705   -1.0244    1.1122 C.3       12 UNK        -0.0855 
      7 S7         28.4386   -0.3778   -0.5581 S.3       12 UNK        -0.2931 
      8 C8         30.1205   -1.0023   -0.8599 C.3       12 UNK         0.0378 
      9 C9         30.2778   -1.4297   -2.3111 C.ar      12 UNK        -0.0802 
     10 C10        30.9862   -0.6343   -3.2147 C.ar      12 UNK        -0.0944 
     11 C11        31.1276   -1.0179   -4.5530 C.ar      12 UNK        -0.0787 
     12 C12        30.5521   -2.2251   -4.9795 C.ar      12 UNK        -0.0862 
     13 C13        29.8404   -3.0286   -4.0834 C.ar      12 UNK        -0.0733 
     14 C14        29.7081   -2.6252   -2.7541 C.ar      12 UNK        -0.0832 
     15 C15        29.2215   -4.3447   -4.5276 C.3       12 UNK         0.0240 
     16 S16        27.4389   -4.1722   -4.8604 S.3       12 UNK        -0.2522 
     17 C17        27.4017   -3.9409   -6.6697 C.3       12 UNK        -0.0967 
     18 CA         26.6764   -2.6666   -7.1660 C.3       5 UNK         0.0660 
     19 N          25.3081   -2.5222   -6.6630 N.am      5 UNK        -0.4015 
     20 C          24.3076   -2.0076   -7.3939 C.2       4 UNK         0.4946 
     21 O          24.4187   -1.6721   -8.5741 O.2       4 UNK        -0.5353 
     22 CA         22.9492   -1.8201   -6.6990 C.3       4 UNK         0.0277 
     23 CB         22.1731   -3.1469   -6.6588 C.3       4 UNK        -0.1981 
     24 N          23.0445   -1.2674   -5.3472 N.am      4 UNK        -0.4209 
     25 C          23.5933   -0.0865   -5.0248 C.2       3 UNK         0.4942 
     26 O          24.1166    0.6766   -5.8353 O.2       3 UNK        -0.5208 
     27 CA         23.5719    0.3008   -3.5360 C.3       3 UNK         0.0250 
     28 CB         22.3118    1.1201   -3.2143 C.3       3 UNK        -0.1990 
     29 N          23.6561   -0.8447   -2.6242 N.am      3 UNK        -0.4232 
     30 C          24.6812   -1.7059   -2.5742 C.2       2 UNK         0.4993 
     31 O          25.6621   -1.6525   -3.3210 O.2       2 UNK        -0.5286 
     32 CA         24.5629   -2.8444   -1.5545 C.3       2 UNK         0.0209 
     33 CB         24.3717   -4.1944   -2.2652 C.3       2 UNK        -0.1931 
     34 N          25.7730   -2.8941   -0.7405 N.am      2 UNK        -0.4546 
     35 C          25.9255   -2.2796    0.4411 C.2       1 UNK         0.5154 
     36 O          25.0235   -1.6530    1.0010 O.2       1 UNK        -0.5181 
     37 C          27.4937   -1.3824   -6.9518 C.2       5 UNK         0.5014 
     38 O          28.2665   -1.0304   -7.8419 O.2       5 UNK        -0.5248 
     39 N          27.2881   -0.6731   -5.8290 N.am      6 UNK        -0.4434 
     40 CA         27.9799    0.5856   -5.5196 C.3       6 UNK         0.0363 
     41 CB         27.5943    1.0619   -4.1142 C.3       6 UNK        -0.1936 
     42 C          27.7525    1.6981   -6.5581 C.2       6 UNK         0.5081 
     43 O          28.6704    2.4748   -6.8263 O.2       6 UNK        -0.5248 
     44 N          26.5596    1.7179   -7.1695 N.am      7 UNK        -0.4718 
     45 CA         26.1802    2.6040   -8.2731 C.3       7 UNK         0.0273 
     46 CB         24.6889    2.3995   -8.5865 C.3       7 UNK        -0.1935 
     47 C          27.0218    2.4468   -9.5560 C.2       7 UNK         0.5018 
     48 O          26.9826    3.3481  -10.3949 O.2       7 UNK        -0.5186 
     49 N          27.7653    1.3374   -9.7032 N.am      8 UNK        -0.4240 
     50 CA         28.6769    1.1106  -10.8287 C.3       8 UNK         0.0235 
     51 CB         29.0940   -0.3681  -10.8741 C.3       8 UNK        -0.2000 
     52 C          29.9254    2.0084  -10.7894 C.2       8 UNK         0.4941 
     53 O          30.5075    2.2543  -11.8468 O.2       8 UNK        -0.5273 
     54 N          30.3298    2.4600   -9.5899 N.am      9 UNK        -0.4262 
     55 CA         31.4646    3.3406   -9.2624 C.3       9 UNK         0.0264 
     56 CB         31.2861    4.7345   -9.8932 C.3       9 UNK        -0.1955 
     57 C          32.8631    2.7711   -9.5759 C.2       9 UNK         0.5031 
     58 O          33.7683    2.9172   -8.7530 O.2       9 UNK        -0.5390 
     59 N          33.0185    2.1060  -10.7286 N.am      10 UNK        -0.4204 
     60 CA         34.2388    1.4418  -11.2067 C.3       10 UNK         0.0237 
     61 CB         33.9918    0.9113  -12.6282 C.3       10 UNK        -0.1985 
     62 C          34.7469    0.3115  -10.2904 C.2       10 UNK         0.4970 
     63 O          35.9219   -0.0489  -10.3688 O.2       10 UNK        -0.4914 
     64 N          33.8629   -0.2024   -9.4284 N.am      11 UNK        -0.4285 
     65 CA         34.1665   -1.0755   -8.2889 C.3       11 UNK         0.1007 
     66 C          35.1000   -0.4467   -7.2104 C.2       11 UNK         0.5703 
     67 N          35.2424    0.8727   -7.1332 N.am      11 UNK        -0.7361 
     68 O          35.7103   -1.1758   -6.4325 O.2       11 UNK        -0.4986 
     69 C69        32.8594   -1.6298   -7.6571 C.3       12 UNK        -0.0947 
     70 S70        31.6291   -0.3303   -7.2723 S.3       12 UNK        -0.2240 
     71 C71        31.9002   -0.0818   -5.4850 C.3       12 UNK         0.0194 
     72 H72        29.3231   -6.4131    0.9074 H         1 UNK         0.0906 
     73 H73        28.3743   -6.3647   -0.5804 H         1 UNK         0.0906 
     74 H74        29.7170   -5.2420   -0.3505 H         1 UNK         0.0906 
     75 H75        28.9458   -3.1748    0.0640 H         1 UNK         0.3140 
     76 H76        27.1027   -2.6148    2.1709 H         1 UNK         0.1085 
     77 H77        27.4815   -0.2689    1.6360 H         1 UNK         0.0836 
     78 H78        28.9970   -1.1078    1.6826 H         1 UNK         0.0836 
     79 H79        30.8397   -0.2231   -0.6026 H         1 UNK         0.0731 
     80 H80        30.3451   -1.8479   -0.2097 H         1 UNK         0.0731 
     81 H81        31.4230    0.2955   -2.8764 H         1 UNK         0.1312 
     82 H82        30.6429   -2.5442   -6.0074 H         1 UNK         0.1406 
     83 H83        29.1458   -3.2429   -2.0704 H         1 UNK         0.1631 
     84 H84        29.3512   -5.0857   -3.7373 H         1 UNK         0.0717 
     85 H85        29.7431   -4.7485   -5.3962 H         1 UNK         0.0717 
     86 H86        28.4144   -3.9707   -7.0758 H         1 UNK         0.0934 
     87 H87        26.9029   -4.8154   -7.0902 H         1 UNK         0.0934 
     88 H88        26.6196   -2.7863   -8.2507 H         1 UNK         0.0739 
     89 H89        25.1558   -2.7516   -5.6906 H         1 UNK         0.3093 
     90 H90        22.3750   -1.1089   -7.2969 H         1 UNK         0.0818 
     91 H91        21.1642   -3.0056   -6.2707 H         1 UNK         0.0819 
     92 H92        22.0754   -3.5716   -7.6591 H         1 UNK         0.0819 
     93 H93        22.6719   -3.8910   -6.0365 H         1 UNK         0.0819 
     94 H94        22.6403   -1.8164   -4.6033 H         1 UNK         0.3041 
     95 H95        24.4401    0.9327   -3.3469 H         1 UNK         0.0784 
     96 H96        22.2385    1.9930   -3.8649 H         1 UNK         0.0793 
     97 H97        21.4015    0.5349   -3.3509 H         1 UNK         0.0793 
     98 H98        22.3266    1.4858   -2.1873 H         1 UNK         0.0793 
     99 H99        22.8888   -0.9604   -1.9773 H         1 UNK         0.3024 
    100 H100       23.6940   -2.6730   -0.9147 H         1 UNK         0.1171 
    101 H101       23.4742   -4.1879   -2.8850 H         1 UNK         0.0786 
    102 H102       24.2633   -5.0066   -1.5462 H         1 UNK         0.0786 
    103 H103       25.2142   -4.4350   -2.9135 H         1 UNK         0.0786 
    104 H104       26.5806   -3.3286   -1.1608 H         1 UNK         0.2977 
    105 H105       26.6680   -1.0391   -5.1138 H         1 UNK         0.3127 
    106 H106       29.0467    0.3699   -5.5217 H         1 UNK         0.0770 
    107 H107       26.5473    1.3557   -4.0651 H         1 UNK         0.0814 
    108 H108       27.7624    0.2797   -3.3742 H         1 UNK         0.0814 
    109 H109       28.1918    1.9246   -3.8177 H         1 UNK         0.0814 
    110 H110       25.8399    1.0830   -6.8360 H         1 UNK         0.2983 
    111 H111       26.3207    3.6308   -7.9293 H         1 UNK         0.0947 
    112 H112       24.3667    3.0364   -9.4116 H         1 UNK         0.0806 
    113 H113       24.0661    2.6491   -7.7273 H         1 UNK         0.0806 
    114 H114       24.4754    1.3666   -8.8659 H         1 UNK         0.0806 
    115 H115       27.7631    0.6350   -8.9695 H         1 UNK         0.3000 
    116 H116       28.1369    1.3386  -11.7502 H         1 UNK         0.0850 
    117 H117       29.6823   -0.5789  -11.7682 H         1 UNK         0.0810 
    118 H118       28.2263   -1.0278  -10.8927 H         1 UNK         0.0810 
    119 H119       29.7057   -0.6419  -10.0134 H         1 UNK         0.0810 
    120 H120       29.7770    2.1808   -8.7865 H         1 UNK         0.3040 
    121 H121       31.4220    3.4661   -8.1790 H         1 UNK         0.0766 
    122 H122       32.0774    5.4121   -9.5697 H         1 UNK         0.0812 
    123 H123       30.3363    5.1818   -9.6000 H         1 UNK         0.0812 
    124 H124       31.3167    4.6977  -10.9825 H         1 UNK         0.0812 
    125 H125       32.2002    2.0667  -11.3367 H         1 UNK         0.3205 
    126 H126       35.0257    2.1971  -11.2508 H         1 UNK         0.0754 
    127 H127       34.8871    0.4349  -13.0307 H         1 UNK         0.0769 
    128 H128       33.7210    1.7172  -13.3108 H         1 UNK         0.0769 
    129 H129       33.1901    0.1717  -12.6480 H         1 UNK         0.0769 
    130 H130       32.9240    0.1663   -9.4393 H         1 UNK         0.2981 
    131 H131       34.7172   -1.9275   -8.6913 H         1 UNK         0.0541 
    132 H132       34.7305    1.4933   -7.7521 H         1 UNK         0.3459 
    133 H133       35.8548    1.2597   -6.4336 H         1 UNK         0.3459 
    134 H134       33.0700   -2.2235   -6.7655 H         1 UNK         0.0612 
    135 H135       32.3875   -2.3186   -8.3591 H         1 UNK         0.0612 
    136 H136       31.6120    0.9469   -5.2633 H         1 UNK         0.0624 
    137 H137       32.9637   -0.1543   -5.2582 H         1 UNK         0.0624 
@<TRIPOS>BOND
     1    1    2 1    
     2    1   72 1    
     3    1   73 1    
     4    1   74 1    
     5    2    3 2    
     6    2    4 am   BACKBONE|DICT|INTERRES
     7    4    5 1    
     8    4   75 1    
     9    5    6 1    
    10    5   35 1    
    11    5   76 1    
    12    6    7 1    
    13    6   77 1    
    14    6   78 1    
    15    7    8 1    
    16    8    9 1    
    17    8   79 1    
    18    8   80 1    
    19    9   10 ar   
    20    9   14 ar   
    21   10   11 ar   
    22   10   81 1    
    23   11   12 ar   
    24   11   71 1    
    25   12   13 ar   
    26   12   82 1    
    27   13   14 ar   
    28   13   15 1    
    29   14   83 1    
    30   15   16 1    
    31   15   84 1    
    32   15   85 1    
    33   16   17 1    
    34   17   18 1    
    35   17   86 1    
    36   17   87 1    
    37   18   19 1    
    38   18   37 1    
    39   18   88 1    
    40   19   20 am   BACKBONE|DICT|INTERRES
    41   19   89 1    
    42   20   21 2    
    43   20   22 1    
    44   22   23 1    
    45   22   24 1    
    46   22   90 1    
    47   23   91 1    
    48   23   92 1    
    49   23   93 1    
    50   24   25 am   BACKBONE|DICT|INTERRES
    51   24   94 1    
    52   25   26 2    
    53   25   27 1    
    54   27   28 1    
    55   27   29 1    
    56   27   95 1    
    57   28   96 1    
    58   28   97 1    
    59   28   98 1    
    60   29   30 am   BACKBONE|DICT|INTERRES
    61   29   99 1    
    62   30   31 2    
    63   30   32 1    
    64   32   33 1    
    65   32   34 1    
    66   32  100 1    
    67   33  101 1    
    68   33  102 1    
    69   33  103 1    
    70   34   35 am   BACKBONE|DICT|INTERRES
    71   34  104 1    
    72   35   36 2    
    73   37   38 2    
    74   37   39 am   BACKBONE|DICT|INTERRES
    75   39   40 1    
    76   39  105 1    
    77   40   41 1    
    78   40   42 1    
    79   40  106 1    
    80   41  107 1    
    81   41  108 1    
    82   41  109 1    
    83   42   43 2    
    84   42   44 am   BACKBONE|DICT|INTERRES
    85   44   45 1    
    86   44  110 1    
    87   45   46 1    
    88   45   47 1    
    89   45  111 1    
    90   46  112 1    
    91   46  113 1    
    92   46  114 1    
    93   47   48 2    
    94   47   49 am   BACKBONE|DICT|INTERRES
    95   49   50 1    
    96   49  115 1    
    97   50   51 1    
    98   50   52 1    
    99   50  116 1    
   100   51  117 1    
   101   51  118 1    
   102   51  119 1    
   103   52   53 2    
   104   52   54 am   BACKBONE|DICT|INTERRES
   105   54   55 1    
   106   54  120 1    
   107   55   56 1    
   108   55   57 1    
   109   55  121 1    
   110   56  122 1    
   111   56  123 1    
   112   56  124 1    
   113   57   58 2    
   114   57   59 am   BACKBONE|DICT|INTERRES
   115   59   60 1    
   116   59  125 1    
   117   60   61 1    
   118   60   62 1    
   119   60  126 1    
   120   61  127 1    
   121   61  128 1    
   122   61  129 1    
   123   62   63 2    
   124   62   64 am   BACKBONE|DICT|INTERRES
   125   64   65 1    
   126   64  130 1    
   127   65   66 1    
   128   65   69 1    
   129   65  131 1    
   130   66   67 am   BACKBONE|DICT|INTERRES
   131   66   68 2    
   132   67  132 1    
   133   67  133 1    
   134   69   70 1    
   135   69  134 1    
   136   69  135 1    
   137   70   71 1    
   138   71  136 1    
   139   71  137 1    
@<TRIPOS>SUBSTRUCTURE
     1 UNK         1 GROUP             0       ****    0 ROOT    
