@<TRIPOS>MOLECULE
3R137
137   139    1
SMALL
USER_CHARGES


@<TRIPOS>ATOM
      1 CA         28.1649   -8.9687   -1.8398 C.3       0 UNK        -0.2020 
      2 C          27.3961   -7.6584   -1.9243 C.2       0 UNK         0.4855 
      3 O          26.2003   -7.6296   -1.6300 O.2       0 UNK        -0.5197 
      4 N          28.0743   -6.5730   -2.3144 N.am      1 UNK        -0.4892 
      5 CA         27.4842   -5.2489   -2.5331 C.3       1 UNK         0.0835 
      6 C6         28.5473   -4.1234   -2.4274 C.3       12 UNK        -0.0855 
      7 S7         29.9729   -4.3226   -3.5563 S.3       12 UNK        -0.2931 
      8 C8         31.3448   -3.7101   -2.5296 C.3       12 UNK         0.0378 
      9 C9         31.3562   -2.1899   -2.4386 C.ar      12 UNK        -0.0802 
     10 C10        32.1176   -1.4396   -3.3402 C.ar      12 UNK        -0.0944 
     11 C11        32.1762   -0.0468   -3.2332 C.ar      12 UNK        -0.0787 
     12 C12        31.4571    0.5973   -2.2233 C.ar      12 UNK        -0.0862 
     13 C13        30.6759   -0.1393   -1.3270 C.ar      12 UNK        -0.0733 
     14 C14        30.6350   -1.5328   -1.4363 C.ar      12 UNK        -0.0832 
     15 C15        29.9002    0.5610   -0.2196 C.3       12 UNK         0.0240 
     16 S16        28.1995    0.9748   -0.7273 S.3       12 UNK        -0.2522 
     17 C17        28.4822    2.3894   -1.8437 C.3       12 UNK        -0.0967 
     18 CA         28.0906    2.0612   -3.3077 C.3       5 UNK         0.0660 
     19 N          26.6346    1.9495   -3.4518 N.am      5 UNK        -0.4015 
     20 C          25.9908    1.2779   -4.4130 C.2       4 UNK         0.4946 
     21 O          26.5466    0.5707   -5.2584 O.2       4 UNK        -0.5353 
     22 CA         24.4799    1.5073   -4.4960 C.3       4 UNK         0.0277 
     23 CB         24.1728    2.7328   -5.3783 C.3       4 UNK        -0.1981 
     24 N          23.8515    0.3172   -5.0565 N.am      4 UNK        -0.4209 
     25 C          22.5685   -0.0301   -4.8949 C.2       3 UNK         0.4942 
     26 O          21.7465    0.6595   -4.2894 O.2       3 UNK        -0.5208 
     27 CA         22.1095   -1.3712   -5.5023 C.3       3 UNK         0.0250 
     28 CB         21.3970   -1.1313   -6.8440 C.3       3 UNK        -0.1990 
     29 N          23.1839   -2.3508   -5.6994 N.am      3 UNK        -0.4232 
     30 C          23.9214   -2.8934   -4.7209 C.2       2 UNK         0.4993 
     31 O          23.7625   -2.6438   -3.5221 O.2       2 UNK        -0.5286 
     32 CA         25.0394   -3.8503   -5.1575 C.3       2 UNK         0.0209 
     33 CB         25.9149   -3.2356   -6.2689 C.3       2 UNK        -0.1931 
     34 N          25.8560   -4.1581   -3.9878 N.am      2 UNK        -0.4546 
     35 C          26.7054   -5.1818   -3.8650 C.2       1 UNK         0.5154 
     36 O          26.8947   -6.0229   -4.7494 O.2       1 UNK        -0.5181 
     37 C          28.6153    3.1185   -4.3038 C.2       5 UNK         0.5014 
     38 O          29.0939    4.1786   -3.8948 O.2       5 UNK        -0.5248 
     39 N          28.4565    2.8299   -5.5973 N.am      6 UNK        -0.4434 
     40 CA         28.7891    3.6872   -6.7292 C.3       6 UNK         0.0363 
     41 CB         27.7284    4.8009   -6.8854 C.3       6 UNK        -0.1936 
     42 C          28.9339    2.7918   -7.9681 C.2       6 UNK         0.5081 
     43 O          29.3351    1.6363   -7.8297 O.2       6 UNK        -0.5248 
     44 N          28.5725    3.3072   -9.1521 N.am      7 UNK        -0.4718 
     45 CA         28.6789    2.6340  -10.4548 C.3       7 UNK         0.0273 
     46 CB         28.1365    3.5643  -11.5511 C.3       7 UNK        -0.1935 
     47 C          28.0011    1.2525  -10.5410 C.2       7 UNK         0.5018 
     48 O          28.4725    0.4055  -11.2990 O.2       7 UNK        -0.5186 
     49 N          26.9573    1.0223   -9.7307 N.am      8 UNK        -0.4240 
     50 CA         26.3000   -0.2781   -9.5568 C.3       8 UNK         0.0235 
     51 CB         25.0637   -0.1071   -8.6582 C.3       8 UNK        -0.2000 
     52 C          27.2318   -1.3686   -8.9898 C.2       8 UNK         0.4941 
     53 O          27.0894   -2.5322   -9.3645 O.2       8 UNK        -0.5273 
     54 N          28.1768   -0.9715   -8.1268 N.am      9 UNK        -0.4262 
     55 CA         29.2282   -1.8187   -7.5577 C.3       9 UNK         0.0264 
     56 CB         29.3908   -1.4606   -6.0683 C.3       9 UNK        -0.1955 
     57 C          30.5653   -1.6572   -8.3100 C.2       9 UNK         0.5031 
     58 O          31.5759   -2.2066   -7.8658 O.2       9 UNK        -0.5390 
     59 N          30.5618   -0.8983   -9.4176 N.am      10 UNK        -0.4204 
     60 CA         31.6872   -0.4562  -10.2483 C.3       10 UNK         0.0237 
     61 CB         32.4468   -1.6414  -10.8781 C.3       10 UNK        -0.1985 
     62 C          32.6304    0.5134   -9.5174 C.2       10 UNK         0.4970 
     63 O          32.7799    1.6521   -9.9616 O.2       10 UNK        -0.4914 
     64 N          33.2419    0.0415   -8.4244 N.am      11 UNK        -0.4285 
     65 CA         34.1702    0.7718   -7.5433 C.3       11 UNK         0.1007 
     66 C          35.4862    1.2575   -8.2269 C.2       11 UNK         0.5703 
     67 N          35.8972    0.6782   -9.3490 N.am      11 UNK        -0.7361 
     68 O          36.1686    2.1452   -7.7199 O.2       11 UNK        -0.4986 
     69 C69        33.4638    1.8848   -6.7140 C.3       12 UNK        -0.0947 
     70 S70        32.1118    1.2309   -5.6798 S.3       12 UNK        -0.2240 
     71 C71        33.0390    0.7579   -4.1913 C.3       12 UNK         0.0194 
     72 H72        28.1221   -9.3646   -0.8254 H         1 UNK         0.0906 
     73 H73        27.7255   -9.7050   -2.5122 H         1 UNK         0.0906 
     74 H74        29.2132   -8.8448   -2.1113 H         1 UNK         0.0906 
     75 H75        29.0432   -6.6553   -2.5895 H         1 UNK         0.3140 
     76 H76        26.7535   -5.0803   -1.7381 H         1 UNK         0.1085 
     77 H77        28.9122   -4.0970   -1.4002 H         1 UNK         0.0836 
     78 H78        28.1026   -3.1416   -2.6024 H         1 UNK         0.0836 
     79 H79        32.2832   -4.0589   -2.9634 H         1 UNK         0.0731 
     80 H80        31.2946   -4.1530   -1.5337 H         1 UNK         0.0731 
     81 H81        32.6744   -1.9405   -4.1206 H         1 UNK         0.1312 
     82 H82        31.5153    1.6729   -2.1355 H         1 UNK         0.1406 
     83 H83        30.0464   -2.1050   -0.7329 H         1 UNK         0.1631 
     84 H84        30.4212    1.4642    0.1023 H         1 UNK         0.0717 
     85 H85        29.8523   -0.0842    0.6590 H         1 UNK         0.0717 
     86 H86        27.9114    3.2432   -1.4738 H         1 UNK         0.0934 
     87 H87        29.5267    2.6935   -1.7756 H         1 UNK         0.0934 
     88 H88        28.5535    1.1093   -3.5809 H         1 UNK         0.0739 
     89 H89        26.0932    2.5218   -2.8207 H         1 UNK         0.3093 
     90 H90        24.0948    1.6724   -3.4872 H         1 UNK         0.0818 
     91 H91        24.6536    3.6307   -4.9880 H         1 UNK         0.0819 
     92 H92        24.5278    2.5904   -6.3999 H         1 UNK         0.0819 
     93 H93        23.1024    2.9344   -5.4224 H         1 UNK         0.0819 
     94 H94        24.4902   -0.3099   -5.5275 H         1 UNK         0.3041 
     95 H95        21.3903   -1.8088   -4.8067 H         1 UNK         0.0784 
     96 H96        20.5658   -0.4346   -6.7250 H         1 UNK         0.0793 
     97 H97        22.0708   -0.7079   -7.5900 H         1 UNK         0.0793 
     98 H98        20.9846   -2.0563   -7.2474 H         1 UNK         0.0793 
     99 H99        23.3716   -2.6229   -6.6533 H         1 UNK         0.3024 
    100 H100       24.5767   -4.7720   -5.5176 H         1 UNK         0.1171 
    101 H101       26.2643   -2.2382   -5.9998 H         1 UNK         0.0786 
    102 H102       26.7919   -3.8466   -6.4825 H         1 UNK         0.0786 
    103 H103       25.3633   -3.1494   -7.2048 H         1 UNK         0.0786 
    104 H104       25.6825   -3.5410   -3.2030 H         1 UNK         0.2977 
    105 H105       28.0847    1.9166   -5.8423 H         1 UNK         0.3127 
    106 H106       29.7651    4.1418   -6.5479 H         1 UNK         0.0770 
    107 H107       28.0038    5.5108   -7.6658 H         1 UNK         0.0814 
    108 H108       27.6211    5.3787   -5.9674 H         1 UNK         0.0814 
    109 H109       26.7475    4.3925   -7.1322 H         1 UNK         0.0814 
    110 H110       28.2350    4.2589   -9.1695 H         1 UNK         0.2983 
    111 H111       29.7433    2.4726  -10.6404 H         1 UNK         0.0947 
    112 H112       28.2250    3.1019  -12.5355 H         1 UNK         0.0806 
    113 H113       28.6906    4.5025  -11.5874 H         1 UNK         0.0806 
    114 H114       27.0830    3.8005  -11.3958 H         1 UNK         0.0806 
    115 H115       26.6406    1.7783   -9.1418 H         1 UNK         0.3000 
    116 H116       25.9657   -0.6134  -10.5410 H         1 UNK         0.0850 
    117 H117       25.3350    0.2549   -7.6665 H         1 UNK         0.0810 
    118 H118       24.5412   -1.0557   -8.5299 H         1 UNK         0.0810 
    119 H119       24.3517    0.5967   -9.0895 H         1 UNK         0.0810 
    120 H120       28.2697    0.0195   -7.9185 H         1 UNK         0.3040 
    121 H121       28.9437   -2.8704   -7.6268 H         1 UNK         0.0766 
    122 H122       28.4793   -1.6556   -5.5050 H         1 UNK         0.0812 
    123 H123       29.6429   -0.4090   -5.9326 H         1 UNK         0.0812 
    124 H124       30.1842   -2.0466   -5.6037 H         1 UNK         0.0812 
    125 H125       29.6710   -0.5002   -9.6872 H         1 UNK         0.3205 
    126 H126       31.2383    0.1067  -11.0682 H         1 UNK         0.0754 
    127 H127       33.2225   -1.2867  -11.5579 H         1 UNK         0.0769 
    128 H128       31.7750   -2.2751  -11.4571 H         1 UNK         0.0769 
    129 H129       32.9339   -2.2685  -10.1312 H         1 UNK         0.0769 
    130 H130       32.9802   -0.8925   -8.1217 H         1 UNK         0.2981 
    131 H131       34.5181    0.0228   -6.8320 H         1 UNK         0.0541 
    132 H132       35.3574   -0.0607   -9.7695 H         1 UNK         0.3459 
    133 H133       36.7541    0.9881   -9.7794 H         1 UNK         0.3459 
    134 H134       33.0515    2.6491   -7.3743 H         1 UNK         0.0612 
    135 H135       34.1705    2.3989   -6.0605 H         1 UNK         0.0612 
    136 H136       33.9144    0.1727   -4.4760 H         1 UNK         0.0624 
    137 H137       33.4150    1.6569   -3.7005 H         1 UNK         0.0624 
@<TRIPOS>BOND
     1    1    2 1    
     2    1   72 1    
     3    1   73 1    
     4    1   74 1    
     5    2    3 2    
     6    2    4 am   BACKBONE|DICT|INTERRES
     7    4    5 1    
     8    4   75 1    
     9    5    6 1    
    10    5   35 1    
    11    5   76 1    
    12    6    7 1    
    13    6   77 1    
    14    6   78 1    
    15    7    8 1    
    16    8    9 1    
    17    8   79 1    
    18    8   80 1    
    19    9   10 ar   
    20    9   14 ar   
    21   10   11 ar   
    22   10   81 1    
    23   11   12 ar   
    24   11   71 1    
    25   12   13 ar   
    26   12   82 1    
    27   13   14 ar   
    28   13   15 1    
    29   14   83 1    
    30   15   16 1    
    31   15   84 1    
    32   15   85 1    
    33   16   17 1    
    34   17   18 1    
    35   17   86 1    
    36   17   87 1    
    37   18   19 1    
    38   18   37 1    
    39   18   88 1    
    40   19   20 am   BACKBONE|DICT|INTERRES
    41   19   89 1    
    42   20   21 2    
    43   20   22 1    
    44   22   23 1    
    45   22   24 1    
    46   22   90 1    
    47   23   91 1    
    48   23   92 1    
    49   23   93 1    
    50   24   25 am   BACKBONE|DICT|INTERRES
    51   24   94 1    
    52   25   26 2    
    53   25   27 1    
    54   27   28 1    
    55   27   29 1    
    56   27   95 1    
    57   28   96 1    
    58   28   97 1    
    59   28   98 1    
    60   29   30 am   BACKBONE|DICT|INTERRES
    61   29   99 1    
    62   30   31 2    
    63   30   32 1    
    64   32   33 1    
    65   32   34 1    
    66   32  100 1    
    67   33  101 1    
    68   33  102 1    
    69   33  103 1    
    70   34   35 am   BACKBONE|DICT|INTERRES
    71   34  104 1    
    72   35   36 2    
    73   37   38 2    
    74   37   39 am   BACKBONE|DICT|INTERRES
    75   39   40 1    
    76   39  105 1    
    77   40   41 1    
    78   40   42 1    
    79   40  106 1    
    80   41  107 1    
    81   41  108 1    
    82   41  109 1    
    83   42   43 2    
    84   42   44 am   BACKBONE|DICT|INTERRES
    85   44   45 1    
    86   44  110 1    
    87   45   46 1    
    88   45   47 1    
    89   45  111 1    
    90   46  112 1    
    91   46  113 1    
    92   46  114 1    
    93   47   48 2    
    94   47   49 am   BACKBONE|DICT|INTERRES
    95   49   50 1    
    96   49  115 1    
    97   50   51 1    
    98   50   52 1    
    99   50  116 1    
   100   51  117 1    
   101   51  118 1    
   102   51  119 1    
   103   52   53 2    
   104   52   54 am   BACKBONE|DICT|INTERRES
   105   54   55 1    
   106   54  120 1    
   107   55   56 1    
   108   55   57 1    
   109   55  121 1    
   110   56  122 1    
   111   56  123 1    
   112   56  124 1    
   113   57   58 2    
   114   57   59 am   BACKBONE|DICT|INTERRES
   115   59   60 1    
   116   59  125 1    
   117   60   61 1    
   118   60   62 1    
   119   60  126 1    
   120   61  127 1    
   121   61  128 1    
   122   61  129 1    
   123   62   63 2    
   124   62   64 am   BACKBONE|DICT|INTERRES
   125   64   65 1    
   126   64  130 1    
   127   65   66 1    
   128   65   69 1    
   129   65  131 1    
   130   66   67 am   BACKBONE|DICT|INTERRES
   131   66   68 2    
   132   67  132 1    
   133   67  133 1    
   134   69   70 1    
   135   69  134 1    
   136   69  135 1    
   137   70   71 1    
   138   71  136 1    
   139   71  137 1    
@<TRIPOS>SUBSTRUCTURE
     1 UNK         1 GROUP             0       ****    0 ROOT    
