@<TRIPOS>MOLECULE
3R137
137   139    1
SMALL
USER_CHARGES


@<TRIPOS>ATOM
      1 CA         27.3097   -7.0829    0.0658 C.3       0 UNK        -0.2020 
      2 C          27.4147   -5.6308   -0.3736 C.2       0 UNK         0.4855 
      3 O          27.4337   -5.3599   -1.5742 O.2       0 UNK        -0.5197 
      4 N          27.4764   -4.7007    0.5902 N.am      1 UNK        -0.4892 
      5 CA         27.6056   -3.2373    0.4537 C.3       1 UNK         0.0835 
      6 C6         28.8785   -2.7733   -0.3004 C.3       12 UNK        -0.0855 
      7 S7         30.4212   -3.2776    0.5359 S.3       12 UNK        -0.2931 
      8 C8         31.0372   -4.6112   -0.5440 C.3       12 UNK         0.0378 
      9 C9         31.3118   -4.1344   -1.9641 C.ar      12 UNK        -0.0802 
     10 C10        32.3309   -3.2109   -2.2113 C.ar      12 UNK        -0.0944 
     11 C11        32.5886   -2.7723   -3.5122 C.ar      12 UNK        -0.0787 
     12 C12        31.8399   -3.2874   -4.5736 C.ar      12 UNK        -0.0862 
     13 C13        30.7986   -4.1926   -4.3398 C.ar      12 UNK        -0.0733 
     14 C14        30.5466   -4.6166   -3.0314 C.ar      12 UNK        -0.0832 
     15 C15        29.9580   -4.7466   -5.4871 C.3       12 UNK         0.0240 
     16 S16        29.5528   -3.5154   -6.7710 S.3       12 UNK        -0.2522 
     17 C17        28.3626   -2.4345   -5.9135 C.3       12 UNK        -0.0967 
     18 CA         27.6300   -1.4980   -6.9126 C.3       5 UNK         0.0660 
     19 N          26.2340   -1.2615   -6.5283 N.am      5 UNK        -0.4015 
     20 C          25.3060   -0.7611   -7.3610 C.2       4 UNK         0.4946 
     21 O          25.5319   -0.4703   -8.5342 O.2       4 UNK        -0.5353 
     22 CA         23.8959   -0.5040   -6.7985 C.3       4 UNK         0.0277 
     23 CB         23.0134   -1.7487   -6.9829 C.3       4 UNK        -0.1981 
     24 N          23.8850   -0.1068   -5.3913 N.am      4 UNK        -0.4209 
     25 C          24.5371    0.9428   -4.8705 C.2       3 UNK         0.4942 
     26 O          25.1573    1.7653   -5.5434 O.2       3 UNK        -0.5208 
     27 CA         24.5552    1.0588   -3.3361 C.3       3 UNK         0.0250 
     28 CB         23.5156    2.0876   -2.8649 C.3       3 UNK        -0.1990 
     29 N          24.3363   -0.2146   -2.6355 N.am      3 UNK        -0.4232 
     30 C          25.1123   -1.3028   -2.7482 C.2       2 UNK         0.4993 
     31 O          26.0985   -1.3730   -3.4884 O.2       2 UNK        -0.5286 
     32 CA         24.6715   -2.5432   -1.9576 C.3       2 UNK         0.0209 
     33 CB         24.1093   -3.6139   -2.9073 C.3       2 UNK        -0.1931 
     34 N          25.7929   -3.1061   -1.2113 N.am      2 UNK        -0.4546 
     35 C          26.3544   -2.5498   -0.1326 C.2       1 UNK         0.5154 
     36 O          25.9168   -1.5327    0.4085 O.2       1 UNK        -0.5181 
     37 C          28.3854   -0.1702   -7.1389 C.2       5 UNK         0.5014 
     38 O          29.1281   -0.0405   -8.1148 O.2       5 UNK        -0.5248 
     39 N          28.1377    0.8167   -6.2647 N.am      6 UNK        -0.4434 
     40 CA         28.6541    2.1788   -6.3996 C.3       6 UNK         0.0363 
     41 CB         28.4637    2.9478   -5.0833 C.3       6 UNK        -0.1936 
     42 C          28.0135    2.9245   -7.5814 C.2       6 UNK         0.5081 
     43 O          28.7305    3.5787   -8.3366 O.2       6 UNK        -0.5248 
     44 N          26.6921    2.7751   -7.7599 N.am      7 UNK        -0.4718 
     45 CA         25.9328    3.3405   -8.8831 C.3       7 UNK         0.0273 
     46 CB         24.4312    3.1007   -8.6674 C.3       7 UNK        -0.1935 
     47 C          26.3764    2.7974  -10.2543 C.2       7 UNK         0.5018 
     48 O          26.4032    3.5549  -11.2245 O.2       7 UNK        -0.5186 
     49 N          26.7612    1.5142  -10.3000 N.am      8 UNK        -0.4240 
     50 CA         27.3685    0.8522  -11.4584 C.3       8 UNK         0.0235 
     51 CB         27.2415   -0.6712  -11.2820 C.3       8 UNK        -0.2000 
     52 C          28.8409    1.2422  -11.7037 C.2       8 UNK         0.4941 
     53 O          29.4124    0.7841  -12.6940 O.2       8 UNK        -0.5273 
     54 N          29.4357    2.0487  -10.8094 N.am      9 UNK        -0.4262 
     55 CA         30.8323    2.5000  -10.7988 C.3       9 UNK         0.0264 
     56 CB         31.1605    3.3501  -12.0452 C.3       9 UNK        -0.1955 
     57 C          31.8455    1.3636  -10.5594 C.2       9 UNK         0.5031 
     58 O          33.0084    1.4943  -10.9464 O.2       9 UNK        -0.5390 
     59 N          31.4063    0.2872   -9.8927 N.am      10 UNK        -0.4204 
     60 CA         32.2509   -0.8210   -9.4407 C.3       10 UNK         0.0237 
     61 CB         31.4714   -2.1360   -9.6013 C.3       10 UNK        -0.1985 
     62 C          32.7424   -0.6174   -7.9935 C.2       10 UNK         0.4970 
     63 O          33.5098   -1.4434   -7.4985 O.2       10 UNK        -0.4914 
     64 N          32.3212    0.4795   -7.3542 N.am      11 UNK        -0.4285 
     65 CA         32.7645    0.9498   -6.0413 C.3       11 UNK         0.1007 
     66 C          32.7199    2.5006   -5.9740 C.2       11 UNK         0.5703 
     67 N          33.1607    3.0891   -4.8717 N.am      11 UNK        -0.7361 
     68 O          32.2890    3.1755   -6.9083 O.2       11 UNK        -0.4986 
     69 C69        31.9909    0.2586   -4.8835 C.3       12 UNK        -0.0947 
     70 S70        33.0594   -0.0458   -3.4356 S.3       12 UNK        -0.2240 
     71 C71        33.6670   -1.7311   -3.7663 C.3       12 UNK         0.0194 
     72 H72        28.1510   -7.6536   -0.3266 H         1 UNK         0.0906 
     73 H73        26.3903   -7.5245   -0.3174 H         1 UNK         0.0906 
     74 H74        27.3086   -7.1837    1.1510 H         1 UNK         0.0906 
     75 H75        27.4294   -5.0149    1.5501 H         1 UNK         0.3140 
     76 H76        27.6876   -2.8642    1.4764 H         1 UNK         0.1085 
     77 H77        28.9020   -1.6835   -0.3660 H         1 UNK         0.0836 
     78 H78        28.8660   -3.1245   -1.3323 H         1 UNK         0.0836 
     79 H79        31.9603   -5.0075   -0.1189 H         1 UNK         0.0731 
     80 H80        30.3247   -5.4362   -0.5401 H         1 UNK         0.0731 
     81 H81        32.9113   -2.8195   -1.3867 H         1 UNK         0.1312 
     82 H82        32.0555   -2.9625   -5.5826 H         1 UNK         0.1406 
     83 H83        29.7507   -5.3245   -2.8421 H         1 UNK         0.1631 
     84 H84        29.0288   -5.1793   -5.1125 H         1 UNK         0.0717 
     85 H85        30.5118   -5.5619   -5.9540 H         1 UNK         0.0717 
     86 H86        27.6456   -3.0838   -5.4078 H         1 UNK         0.0934 
     87 H87        28.8688   -1.8806   -5.1195 H         1 UNK         0.0934 
     88 H88        27.5888   -2.0000   -7.8824 H         1 UNK         0.0739 
     89 H89        25.9961   -1.4294   -5.5559 H         1 UNK         0.3093 
     90 H90        23.4544    0.3133   -7.3700 H         1 UNK         0.0818 
     91 H91        22.9856   -2.0543   -8.0300 H         1 UNK         0.0819 
     92 H92        23.3832   -2.5973   -6.4057 H         1 UNK         0.0819 
     93 H93        21.9847   -1.5561   -6.6776 H         1 UNK         0.0819 
     94 H94        23.3930   -0.7152   -4.7543 H         1 UNK         0.3041 
     95 H95        25.5468    1.4199   -3.0553 H         1 UNK         0.0784 
     96 H96        23.6716    3.0512   -3.3527 H         1 UNK         0.0793 
     97 H97        22.4978    1.7684   -3.0928 H         1 UNK         0.0793 
     98 H98        23.5830    2.2577   -1.7901 H         1 UNK         0.0793 
     99 H99        23.5436   -0.2470   -2.0098 H         1 UNK         0.3024 
    100 H100       23.8916   -2.2634   -1.2454 H         1 UNK         0.1171 
    101 H101       23.2541   -3.2333   -3.4672 H         1 UNK         0.0786 
    102 H102       23.7705   -4.4921   -2.3572 H         1 UNK         0.0786 
    103 H103       24.8557   -3.9423   -3.6323 H         1 UNK         0.0786 
    104 H104       26.2525   -3.9275   -1.5982 H         1 UNK         0.2977 
    105 H105       27.4749    0.6522   -5.5204 H         1 UNK         0.3127 
    106 H106       29.7253    2.1117   -6.5965 H         1 UNK         0.0770 
    107 H107       28.9698    2.4500   -4.2561 H         1 UNK         0.0814 
    108 H108       28.8815    3.9525   -5.1594 H         1 UNK         0.0814 
    109 H109       27.4108    3.0526   -4.8200 H         1 UNK         0.0814 
    110 H110       26.1616    2.2671   -7.0549 H         1 UNK         0.2983 
    111 H111       26.1091    4.4183   -8.8848 H         1 UNK         0.0947 
    112 H112       24.1845    2.0410   -8.7191 H         1 UNK         0.0806 
    113 H113       23.8432    3.6077   -9.4334 H         1 UNK         0.0806 
    114 H114       24.1003    3.4780   -7.6995 H         1 UNK         0.0806 
    115 H115       26.6187    0.9374   -9.4758 H         1 UNK         0.3000 
    116 H116       26.8081    1.1403  -12.3501 H         1 UNK         0.0850 
    117 H117       27.6479   -1.2047  -12.1421 H         1 UNK         0.0810 
    118 H118       26.1989   -0.9727  -11.1803 H         1 UNK         0.0810 
    119 H119       27.7780   -1.0192  -10.3983 H         1 UNK         0.0810 
    120 H120       28.8833    2.3809  -10.0258 H         1 UNK         0.3040 
    121 H121       30.9219    3.1554   -9.9312 H         1 UNK         0.0766 
    122 H122       31.1821    2.7485  -12.9541 H         1 UNK         0.0812 
    123 H123       32.1383    3.8235  -11.9485 H         1 UNK         0.0812 
    124 H124       30.4297    4.1465  -12.1856 H         1 UNK         0.0812 
    125 H125       30.4458    0.2694   -9.5566 H         1 UNK         0.3205 
    126 H126       33.1428   -0.8873  -10.0671 H         1 UNK         0.0754 
    127 H127       32.0332   -2.9843   -9.2080 H         1 UNK         0.0769 
    128 H128       31.2641   -2.3427  -10.6513 H         1 UNK         0.0769 
    129 H129       30.5169   -2.1023   -9.0786 H         1 UNK         0.0769 
    130 H130       31.7248    1.1292   -7.8467 H         1 UNK         0.2981 
    131 H131       33.8234    0.6928   -5.9722 H         1 UNK         0.0541 
    132 H132       33.1414    4.0947   -4.8082 H         1 UNK         0.3459 
    133 H133       33.4976    2.5393   -4.0959 H         1 UNK         0.3459 
    134 H134       31.5667   -0.6883   -5.2129 H         1 UNK         0.0612 
    135 H135       31.1312    0.8529   -4.5685 H         1 UNK         0.0612 
    136 H136       34.0347   -1.7933   -4.7916 H         1 UNK         0.0624 
    137 H137       34.5242   -1.9288   -3.1212 H         1 UNK         0.0624 
@<TRIPOS>BOND
     1    1    2 1    
     2    1   72 1    
     3    1   73 1    
     4    1   74 1    
     5    2    3 2    
     6    2    4 am   BACKBONE|DICT|INTERRES
     7    4    5 1    
     8    4   75 1    
     9    5    6 1    
    10    5   35 1    
    11    5   76 1    
    12    6    7 1    
    13    6   77 1    
    14    6   78 1    
    15    7    8 1    
    16    8    9 1    
    17    8   79 1    
    18    8   80 1    
    19    9   10 ar   
    20    9   14 ar   
    21   10   11 ar   
    22   10   81 1    
    23   11   12 ar   
    24   11   71 1    
    25   12   13 ar   
    26   12   82 1    
    27   13   14 ar   
    28   13   15 1    
    29   14   83 1    
    30   15   16 1    
    31   15   84 1    
    32   15   85 1    
    33   16   17 1    
    34   17   18 1    
    35   17   86 1    
    36   17   87 1    
    37   18   19 1    
    38   18   37 1    
    39   18   88 1    
    40   19   20 am   BACKBONE|DICT|INTERRES
    41   19   89 1    
    42   20   21 2    
    43   20   22 1    
    44   22   23 1    
    45   22   24 1    
    46   22   90 1    
    47   23   91 1    
    48   23   92 1    
    49   23   93 1    
    50   24   25 am   BACKBONE|DICT|INTERRES
    51   24   94 1    
    52   25   26 2    
    53   25   27 1    
    54   27   28 1    
    55   27   29 1    
    56   27   95 1    
    57   28   96 1    
    58   28   97 1    
    59   28   98 1    
    60   29   30 am   BACKBONE|DICT|INTERRES
    61   29   99 1    
    62   30   31 2    
    63   30   32 1    
    64   32   33 1    
    65   32   34 1    
    66   32  100 1    
    67   33  101 1    
    68   33  102 1    
    69   33  103 1    
    70   34   35 am   BACKBONE|DICT|INTERRES
    71   34  104 1    
    72   35   36 2    
    73   37   38 2    
    74   37   39 am   BACKBONE|DICT|INTERRES
    75   39   40 1    
    76   39  105 1    
    77   40   41 1    
    78   40   42 1    
    79   40  106 1    
    80   41  107 1    
    81   41  108 1    
    82   41  109 1    
    83   42   43 2    
    84   42   44 am   BACKBONE|DICT|INTERRES
    85   44   45 1    
    86   44  110 1    
    87   45   46 1    
    88   45   47 1    
    89   45  111 1    
    90   46  112 1    
    91   46  113 1    
    92   46  114 1    
    93   47   48 2    
    94   47   49 am   BACKBONE|DICT|INTERRES
    95   49   50 1    
    96   49  115 1    
    97   50   51 1    
    98   50   52 1    
    99   50  116 1    
   100   51  117 1    
   101   51  118 1    
   102   51  119 1    
   103   52   53 2    
   104   52   54 am   BACKBONE|DICT|INTERRES
   105   54   55 1    
   106   54  120 1    
   107   55   56 1    
   108   55   57 1    
   109   55  121 1    
   110   56  122 1    
   111   56  123 1    
   112   56  124 1    
   113   57   58 2    
   114   57   59 am   BACKBONE|DICT|INTERRES
   115   59   60 1    
   116   59  125 1    
   117   60   61 1    
   118   60   62 1    
   119   60  126 1    
   120   61  127 1    
   121   61  128 1    
   122   61  129 1    
   123   62   63 2    
   124   62   64 am   BACKBONE|DICT|INTERRES
   125   64   65 1    
   126   64  130 1    
   127   65   66 1    
   128   65   69 1    
   129   65  131 1    
   130   66   67 am   BACKBONE|DICT|INTERRES
   131   66   68 2    
   132   67  132 1    
   133   67  133 1    
   134   69   70 1    
   135   69  134 1    
   136   69  135 1    
   137   70   71 1    
   138   71  136 1    
   139   71  137 1    
@<TRIPOS>SUBSTRUCTURE
     1 UNK         1 GROUP             0       ****    0 ROOT    
