@<TRIPOS>MOLECULE
3R137
137   139    1
SMALL
USER_CHARGES


@<TRIPOS>ATOM
      1 CA         27.7179   -3.2722   -3.7830 C.3       0 UNK        -0.2020 
      2 C          27.5163   -3.9668   -2.4459 C.2       0 UNK         0.4855 
      3 O          26.9723   -5.0714   -2.4004 O.2       0 UNK        -0.5197 
      4 N          27.9466   -3.3302   -1.3501 N.am      1 UNK        -0.4892 
      5 CA         27.7533   -3.8091    0.0216 C.3       1 UNK         0.0835 
      6 C6         28.6017   -3.0140    1.0425 C.3       12 UNK        -0.0855 
      7 S7         30.3831   -3.3508    0.8441 S.3       12 UNK        -0.2931 
      8 C8         31.0402   -1.7150    0.3886 C.3       12 UNK         0.0378 
      9 C9         30.6765   -1.3097   -1.0337 C.ar      12 UNK        -0.0802 
     10 C10        31.1957   -2.0214   -2.1199 C.ar      12 UNK        -0.0944 
     11 C11        30.9172   -1.6191   -3.4287 C.ar      12 UNK        -0.0787 
     12 C12        30.1233   -0.4907   -3.6498 C.ar      12 UNK        -0.0862 
     13 C13        29.5949    0.2266   -2.5742 C.ar      12 UNK        -0.0733 
     14 C14        29.8662   -0.1935   -1.2673 C.ar      12 UNK        -0.0832 
     15 C15        28.7667    1.4785   -2.8216 C.3       12 UNK         0.0240 
     16 S16        27.0822    1.0796   -3.3822 S.3       12 UNK        -0.2522 
     17 C17        27.2071    1.2467   -5.2003 C.3       12 UNK        -0.0967 
     18 CA         26.6689    0.0104   -5.9657 C.3       5 UNK         0.0660 
     19 N          25.3165   -0.3501   -5.5327 N.am      5 UNK        -0.4015 
     20 C          24.6964   -1.4989   -5.8206 C.2       4 UNK         0.4946 
     21 O          25.2024   -2.4162   -6.4726 O.2       4 UNK        -0.5353 
     22 CA         23.2576   -1.6458   -5.2955 C.3       4 UNK         0.0277 
     23 CB         22.2431   -1.4600   -6.4357 C.3       4 UNK        -0.1981 
     24 N          23.0550   -2.9542   -4.6706 N.am      4 UNK        -0.4209 
     25 C          23.6555   -3.3437   -3.5388 C.2       3 UNK         0.4942 
     26 O          24.3639   -2.6001   -2.8555 O.2       3 UNK        -0.5208 
     27 CA         23.4347   -4.8080   -3.1230 C.3       3 UNK         0.0250 
     28 CB         24.0705   -5.7729   -4.1407 C.3       3 UNK        -0.1990 
     29 N          24.0218   -5.0616   -1.8069 N.am      3 UNK        -0.4232 
     30 C          23.3773   -4.9128   -0.6409 C.2       2 UNK         0.4993 
     31 O          22.1797   -4.6367   -0.5535 O.2       2 UNK        -0.5286 
     32 CA         24.1883   -5.1174    0.6528 C.3       2 UNK         0.0209 
     33 CB         23.9170   -6.5119    1.2421 C.3       2 UNK        -0.1931 
     34 N          25.6309   -4.9550    0.4544 N.am      2 UNK        -0.4546 
     35 C          26.2551   -3.7717    0.3835 C.2       1 UNK         0.5154 
     36 O          25.6986   -2.6879    0.5726 O.2       1 UNK        -0.5181 
     37 C          26.6830    0.2759   -7.4845 C.2       5 UNK         0.5014 
     38 O          25.7198    0.8379   -8.0147 O.2       5 UNK        -0.5248 
     39 N          27.7897   -0.0650   -8.1547 N.am      6 UNK        -0.4434 
     40 CA         28.0124    0.2053   -9.5772 C.3       6 UNK         0.0363 
     41 CB         28.9202   -0.8931  -10.1603 C.3       6 UNK        -0.1936 
     42 C          28.6135    1.6108   -9.7361 C.2       6 UNK         0.5081 
     43 O          29.7474    1.7436  -10.1933 O.2       6 UNK        -0.5248 
     44 N          27.8529    2.6266   -9.3020 N.am      7 UNK        -0.4718 
     45 CA         28.2701    4.0072   -9.0130 C.3       7 UNK         0.0273 
     46 CB         27.0231    4.8444   -8.6873 C.3       7 UNK        -0.1935 
     47 C          29.1303    4.7213  -10.0719 C.2       7 UNK         0.5018 
     48 O          29.9367    5.5751   -9.7024 O.2       7 UNK        -0.5186 
     49 N          28.9822    4.3440  -11.3487 N.am      8 UNK        -0.4240 
     50 CA         29.8123    4.8094  -12.4639 C.3       8 UNK         0.0235 
     51 CB         29.2156    4.2936  -13.7836 C.3       8 UNK        -0.2000 
     52 C          31.2988    4.4089  -12.3552 C.2       8 UNK         0.4941 
     53 O          32.1421    5.1053  -12.9221 O.2       8 UNK        -0.5273 
     54 N          31.5989    3.3145  -11.6415 N.am      9 UNK        -0.4262 
     55 CA         32.9516    2.7979  -11.4189 C.3       9 UNK         0.0264 
     56 CB         33.2975    1.7783  -12.5222 C.3       9 UNK        -0.1955 
     57 C          33.1071    2.2091  -10.0046 C.2       9 UNK         0.5031 
     58 O          33.9280    1.3078   -9.8159 O.2       9 UNK        -0.5390 
     59 N          32.3071    2.7030   -9.0456 N.am      10 UNK        -0.4204 
     60 CA         32.1437    2.2573   -7.6528 C.3       10 UNK         0.0237 
     61 CB         33.4116    2.5354   -6.8200 C.3       10 UNK        -0.1985 
     62 C          31.6782    0.7945   -7.5152 C.2       10 UNK         0.4970 
     63 O          30.5493    0.5525   -7.0834 O.2       10 UNK        -0.4914 
     64 N          32.5585   -0.1395   -7.8840 N.am      11 UNK        -0.4285 
     65 CA         32.3353   -1.5911   -7.8998 C.3       11 UNK         0.1007 
     66 C          32.5392   -2.2134   -9.3104 C.2       11 UNK         0.5703 
     67 N          32.9919   -1.4712  -10.3160 N.am      11 UNK        -0.7361 
     68 O          32.2604   -3.3943   -9.5028 O.2       11 UNK        -0.4986 
     69 C69        33.1932   -2.3328   -6.8355 C.3       12 UNK        -0.0947 
     70 S70        33.0464   -1.6352   -5.1576 S.3       12 UNK        -0.2240 
     71 C71        31.4866   -2.3851   -4.6092 C.3       12 UNK         0.0194 
     72 H72        27.8062   -2.1934   -3.6590 H         1 UNK         0.0906 
     73 H73        28.6174   -3.6440   -4.2718 H         1 UNK         0.0906 
     74 H74        26.8676   -3.4617   -4.4375 H         1 UNK         0.0906 
     75 H75        28.4060   -2.4343   -1.4399 H         1 UNK         0.3140 
     76 H76        28.0834   -4.8500    0.0580 H         1 UNK         0.1085 
     77 H77        28.3344   -3.2950    2.0633 H         1 UNK         0.0836 
     78 H78        28.4036   -1.9433    0.9633 H         1 UNK         0.0836 
     79 H79        32.1273   -1.7414    0.4761 H         1 UNK         0.0731 
     80 H80        30.6978   -0.9729    1.1117 H         1 UNK         0.0731 
     81 H81        31.8268   -2.8821   -1.9440 H         1 UNK         0.1312 
     82 H82        29.9252   -0.1661   -4.6614 H         1 UNK         0.1406 
     83 H83        29.4702    0.3675   -0.4313 H         1 UNK         0.1631 
     84 H84        29.2705    2.1257   -3.5409 H         1 UNK         0.0717 
     85 H85        28.6885    2.0629   -1.9036 H         1 UNK         0.0717 
     86 H86        26.6535    2.1448   -5.4832 H         1 UNK         0.0934 
     87 H87        28.2440    1.4359   -5.4845 H         1 UNK         0.0934 
     88 H88        27.3235   -0.8387   -5.7573 H         1 UNK         0.0739 
     89 H89        24.8279    0.3522   -4.9977 H         1 UNK         0.3093 
     90 H90        23.0717   -0.8791   -4.5399 H         1 UNK         0.0818 
     91 H91        22.3618   -0.4831   -6.9068 H         1 UNK         0.0819 
     92 H92        22.3688   -2.2131   -7.2149 H         1 UNK         0.0819 
     93 H93        21.2176   -1.5205   -6.0706 H         1 UNK         0.0819 
     94 H94        22.5149   -3.6270   -5.1948 H         1 UNK         0.3041 
     95 H95        22.3595   -4.9967   -3.0893 H         1 UNK         0.0784 
     96 H96        23.5915   -5.6936   -5.1170 H         1 UNK         0.0793 
     97 H97        25.1320   -5.5686   -4.2843 H         1 UNK         0.0793 
     98 H98        23.9710   -6.8098   -3.8191 H         1 UNK         0.0793 
     99 H99        25.0275   -5.2001   -1.7963 H         1 UNK         0.3024 
    100 H100       23.8444   -4.3697    1.3716 H         1 UNK         0.1171 
    101 H101       24.2385   -7.3062    0.5671 H         1 UNK         0.0786 
    102 H102       24.4326   -6.6483    2.1929 H         1 UNK         0.0786 
    103 H103       22.8519   -6.6554    1.4297 H         1 UNK         0.0786 
    104 H104       26.1582   -5.7956    0.2627 H         1 UNK         0.2977 
    105 H105       28.6010   -0.3810   -7.6366 H         1 UNK         0.3127 
    106 H106       27.0643    0.1806  -10.1189 H         1 UNK         0.0770 
    107 H107       29.0875   -0.7357  -11.2265 H         1 UNK         0.0814 
    108 H108       28.4758   -1.8815  -10.0430 H         1 UNK         0.0814 
    109 H109       29.8968   -0.9036   -9.6775 H         1 UNK         0.0814 
    110 H110       26.9321    2.3707   -8.9631 H         1 UNK         0.2983 
    111 H111       28.8818    3.9547   -8.1100 H         1 UNK         0.0947 
    112 H112       27.2933    5.8708   -8.4338 H         1 UNK         0.0806 
    113 H113       26.4808    4.4360   -7.8341 H         1 UNK         0.0806 
    114 H114       26.3359    4.8873   -9.5332 H         1 UNK         0.0806 
    115 H115       28.3095    3.6182  -11.5496 H         1 UNK         0.3000 
    116 H116       29.7718    5.9008  -12.4726 H         1 UNK         0.0850 
    117 H117       29.2087    3.2035  -13.8241 H         1 UNK         0.0810 
    118 H118       29.7941    4.6476  -14.6382 H         1 UNK         0.0810 
    119 H119       28.1921    4.6430  -13.9211 H         1 UNK         0.0810 
    120 H120       30.8448    2.7776  -11.2101 H         1 UNK         0.3040 
    121 H121       33.6675    3.6204  -11.4756 H         1 UNK         0.0766 
    122 H122       33.2195    2.2249  -13.5135 H         1 UNK         0.0812 
    123 H123       32.6318    0.9150  -12.4900 H         1 UNK         0.0812 
    124 H124       34.3190    1.4108  -12.4163 H         1 UNK         0.0812 
    125 H125       31.6626    3.4260   -9.3334 H         1 UNK         0.3205 
    126 H126       31.3432    2.8719   -7.2379 H         1 UNK         0.0754 
    127 H127       33.2744    2.2184   -5.7851 H         1 UNK         0.0769 
    128 H128       33.6452    3.5999   -6.8042 H         1 UNK         0.0769 
    129 H129       34.2855    2.0104   -7.2065 H         1 UNK         0.0769 
    130 H130       33.4204    0.1841   -8.3102 H         1 UNK         0.2981 
    131 H131       31.2871   -1.7831   -7.6671 H         1 UNK         0.0541 
    132 H132       33.2527   -0.5013  -10.1793 H         1 UNK         0.3459 
    133 H133       33.1086   -1.8979  -11.2208 H         1 UNK         0.3459 
    134 H134       34.2483   -2.2936   -7.1119 H         1 UNK         0.0612 
    135 H135       32.9286   -3.3911   -6.7951 H         1 UNK         0.0612 
    136 H136       31.6567   -3.4305   -4.3477 H         1 UNK         0.0624 
    137 H137       30.7640   -2.3812   -5.4262 H         1 UNK         0.0624 
@<TRIPOS>BOND
     1    1    2 1    
     2    1   72 1    
     3    1   73 1    
     4    1   74 1    
     5    2    3 2    
     6    2    4 am   BACKBONE|DICT|INTERRES
     7    4    5 1    
     8    4   75 1    
     9    5    6 1    
    10    5   35 1    
    11    5   76 1    
    12    6    7 1    
    13    6   77 1    
    14    6   78 1    
    15    7    8 1    
    16    8    9 1    
    17    8   79 1    
    18    8   80 1    
    19    9   10 ar   
    20    9   14 ar   
    21   10   11 ar   
    22   10   81 1    
    23   11   12 ar   
    24   11   71 1    
    25   12   13 ar   
    26   12   82 1    
    27   13   14 ar   
    28   13   15 1    
    29   14   83 1    
    30   15   16 1    
    31   15   84 1    
    32   15   85 1    
    33   16   17 1    
    34   17   18 1    
    35   17   86 1    
    36   17   87 1    
    37   18   19 1    
    38   18   37 1    
    39   18   88 1    
    40   19   20 am   BACKBONE|DICT|INTERRES
    41   19   89 1    
    42   20   21 2    
    43   20   22 1    
    44   22   23 1    
    45   22   24 1    
    46   22   90 1    
    47   23   91 1    
    48   23   92 1    
    49   23   93 1    
    50   24   25 am   BACKBONE|DICT|INTERRES
    51   24   94 1    
    52   25   26 2    
    53   25   27 1    
    54   27   28 1    
    55   27   29 1    
    56   27   95 1    
    57   28   96 1    
    58   28   97 1    
    59   28   98 1    
    60   29   30 am   BACKBONE|DICT|INTERRES
    61   29   99 1    
    62   30   31 2    
    63   30   32 1    
    64   32   33 1    
    65   32   34 1    
    66   32  100 1    
    67   33  101 1    
    68   33  102 1    
    69   33  103 1    
    70   34   35 am   BACKBONE|DICT|INTERRES
    71   34  104 1    
    72   35   36 2    
    73   37   38 2    
    74   37   39 am   BACKBONE|DICT|INTERRES
    75   39   40 1    
    76   39  105 1    
    77   40   41 1    
    78   40   42 1    
    79   40  106 1    
    80   41  107 1    
    81   41  108 1    
    82   41  109 1    
    83   42   43 2    
    84   42   44 am   BACKBONE|DICT|INTERRES
    85   44   45 1    
    86   44  110 1    
    87   45   46 1    
    88   45   47 1    
    89   45  111 1    
    90   46  112 1    
    91   46  113 1    
    92   46  114 1    
    93   47   48 2    
    94   47   49 am   BACKBONE|DICT|INTERRES
    95   49   50 1    
    96   49  115 1    
    97   50   51 1    
    98   50   52 1    
    99   50  116 1    
   100   51  117 1    
   101   51  118 1    
   102   51  119 1    
   103   52   53 2    
   104   52   54 am   BACKBONE|DICT|INTERRES
   105   54   55 1    
   106   54  120 1    
   107   55   56 1    
   108   55   57 1    
   109   55  121 1    
   110   56  122 1    
   111   56  123 1    
   112   56  124 1    
   113   57   58 2    
   114   57   59 am   BACKBONE|DICT|INTERRES
   115   59   60 1    
   116   59  125 1    
   117   60   61 1    
   118   60   62 1    
   119   60  126 1    
   120   61  127 1    
   121   61  128 1    
   122   61  129 1    
   123   62   63 2    
   124   62   64 am   BACKBONE|DICT|INTERRES
   125   64   65 1    
   126   64  130 1    
   127   65   66 1    
   128   65   69 1    
   129   65  131 1    
   130   66   67 am   BACKBONE|DICT|INTERRES
   131   66   68 2    
   132   67  132 1    
   133   67  133 1    
   134   69   70 1    
   135   69  134 1    
   136   69  135 1    
   137   70   71 1    
   138   71  136 1    
   139   71  137 1    
@<TRIPOS>SUBSTRUCTURE
     1 UNK         1 GROUP             0       ****    0 ROOT    
