@<TRIPOS>MOLECULE
3R137
137   139    1
SMALL
USER_CHARGES


@<TRIPOS>ATOM
      1 CA         27.4017   -3.1325    4.1627 C.3       0 UNK        -0.2020 
      2 C          27.2890   -2.4665    2.7992 C.2       0 UNK         0.4855 
      3 O          27.1678   -1.2429    2.7242 O.2       0 UNK        -0.5197 
      4 N          27.3379   -3.2602    1.7224 N.am      1 UNK        -0.4892 
      5 CA         27.1967   -2.7985    0.3366 C.3       1 UNK         0.0835 
      6 C6         27.8360   -3.7884   -0.6716 C.3       12 UNK        -0.0855 
      7 S7         29.6457   -3.8975   -0.4684 S.3       12 UNK        -0.2931 
      8 C8         30.2041   -2.4905   -1.4940 C.3       12 UNK         0.0378 
      9 C9         30.5320   -2.8359   -2.9474 C.ar      12 UNK        -0.0802 
     10 C10        31.5682   -2.1454   -3.5835 C.ar      12 UNK        -0.0944 
     11 C11        31.9092   -2.4208   -4.9107 C.ar      12 UNK        -0.0787 
     12 C12        31.1965   -3.3958   -5.6148 C.ar      12 UNK        -0.0862 
     13 C13        30.1559   -4.0958   -4.9957 C.ar      12 UNK        -0.0733 
     14 C14        29.8274   -3.8091   -3.6672 C.ar      12 UNK        -0.0832 
     15 C15        29.4204   -5.2022   -5.7404 C.3       12 UNK         0.0240 
     16 S16        28.3783   -4.5758   -7.0935 S.3       12 UNK        -0.2522 
     17 C17        27.0503   -3.6940   -6.2021 C.3       12 UNK        -0.0967 
     18 CA         26.6136   -2.4225   -6.9702 C.3       5 UNK         0.0660 
     19 N          25.2639   -1.9868   -6.6161 N.am      5 UNK        -0.4015 
     20 C          24.2653   -1.8260   -7.4974 C.2       4 UNK         0.4946 
     21 O          24.3220   -2.1816   -8.6751 O.2       4 UNK        -0.5353 
     22 CA         22.9769   -1.1382   -7.0041 C.3       4 UNK         0.0277 
     23 CB         21.8909   -2.1861   -6.7093 C.3       4 UNK        -0.1981 
     24 N          23.1508   -0.2868   -5.8243 N.am      4 UNK        -0.4209 
     25 C          23.9851    0.7585   -5.7233 C.2       3 UNK         0.4942 
     26 O          24.7016    1.1602   -6.6387 O.2       3 UNK        -0.5208 
     27 CA         24.1004    1.4129   -4.3364 C.3       3 UNK         0.0250 
     28 CB         23.1179    2.5877   -4.2129 C.3       3 UNK        -0.1990 
     29 N          23.8979    0.4774   -3.2205 N.am      3 UNK        -0.4232 
     30 C          24.6310   -0.6235   -3.0034 C.2       2 UNK         0.4993 
     31 O          25.5437   -1.0032   -3.7461 O.2       2 UNK        -0.5286 
     32 CA         24.2724   -1.4739   -1.7851 C.3       2 UNK         0.0209 
     33 CB         23.4109   -2.6784   -2.2129 C.3       2 UNK        -0.1931 
     34 N          25.5373   -1.9106   -1.2087 N.am      2 UNK        -0.4546 
     35 C          25.7246   -2.5052   -0.0267 C.2       1 UNK         0.5154 
     36 O          24.8066   -2.8185    0.7368 O.2       1 UNK        -0.5181 
     37 C          27.6019   -1.2591   -6.7845 C.2       5 UNK         0.5014 
     38 O          28.3447   -0.9560   -7.7162 O.2       5 UNK        -0.5248 
     39 N          27.5837   -0.6010   -5.6162 N.am      6 UNK        -0.4434 
     40 CA         28.5742    0.4030   -5.2134 C.3       6 UNK         0.0363 
     41 CB         28.3423    0.7836   -3.7428 C.3       6 UNK        -0.1936 
     42 C          28.6417    1.6624   -6.0990 C.2       6 UNK         0.5081 
     43 O          29.7030    2.2816   -6.1599 O.2       6 UNK        -0.5248 
     44 N          27.5374    2.0256   -6.7674 N.am      7 UNK        -0.4718 
     45 CA         27.4935    3.1325   -7.7302 C.3       7 UNK         0.0273 
     46 CB         26.2263    3.9691   -7.4800 C.3       7 UNK        -0.1935 
     47 C          27.5435    2.6468   -9.1914 C.2       7 UNK         0.5018 
     48 O          27.6258    3.4868  -10.0890 O.2       7 UNK        -0.5186 
     49 N          27.4725    1.3276   -9.4183 N.am      8 UNK        -0.4240 
     50 CA         27.4766    0.7078  -10.7460 C.3       8 UNK         0.0235 
     51 CB         26.4387   -0.4258  -10.7777 C.3       8 UNK        -0.2000 
     52 C          28.8659    0.1713  -11.1213 C.2       8 UNK         0.4941 
     53 O          29.2640    0.2861  -12.2818 O.2       8 UNK        -0.5273 
     54 N          29.5694   -0.4161  -10.1451 N.am      9 UNK        -0.4262 
     55 CA         30.9227   -0.9524  -10.2731 C.3       9 UNK         0.0264 
     56 CB         31.2008   -1.8562   -9.0587 C.3       9 UNK        -0.1955 
     57 C          31.9841    0.1557  -10.3832 C.2       9 UNK         0.5031 
     58 O          31.7116    1.3221  -10.0854 O.2       9 UNK        -0.5390 
     59 N          33.2039   -0.2490  -10.7654 N.am      10 UNK        -0.4204 
     60 CA         34.3807    0.6116  -10.9506 C.3       10 UNK         0.0237 
     61 CB         35.5459   -0.2419  -11.4790 C.3       10 UNK        -0.1985 
     62 C          34.8198    1.4060   -9.7039 C.2       10 UNK         0.4970 
     63 O          35.5371    2.3964   -9.8525 O.2       10 UNK        -0.4914 
     64 N          34.3805    0.9787   -8.5130 N.am      11 UNK        -0.4285 
     65 CA         34.5160    1.7243   -7.2552 C.3       11 UNK         0.1007 
     66 C          33.6576    3.0234   -7.1667 C.2       11 UNK         0.5703 
     67 N          32.6791    3.2425   -8.0385 N.am      11 UNK        -0.7361 
     68 O          33.9039    3.8589   -6.2996 O.2       11 UNK        -0.4986 
     69 C69        34.3176    0.8031   -6.0233 C.3       12 UNK        -0.0947 
     70 S70        32.6570    0.0458   -5.9124 S.3       12 UNK        -0.2240 
     71 C71        33.0760   -1.6867   -5.5548 C.3       12 UNK         0.0194 
     72 H72        28.2603   -2.7363    4.7043 H         1 UNK         0.0906 
     73 H73        26.5062   -2.9348    4.7514 H         1 UNK         0.0906 
     74 H74        27.5220   -4.2126    4.0809 H         1 UNK         0.0906 
     75 H75        27.4241   -4.2593    1.8429 H         1 UNK         0.3140 
     76 H76        27.7216   -1.8442    0.2518 H         1 UNK         0.1085 
     77 H77        27.4108   -4.7865   -0.5505 H         1 UNK         0.0836 
     78 H78        27.6232   -3.4975   -1.7008 H         1 UNK         0.0836 
     79 H79        29.4589   -1.6951   -1.4776 H         1 UNK         0.0731 
     80 H80        31.0919   -2.0786   -1.0113 H         1 UNK         0.0731 
     81 H81        32.1223   -1.3897   -3.0432 H         1 UNK         0.1312 
     82 H82        31.4584   -3.6239   -6.6387 H         1 UNK         0.1406 
     83 H83        29.0338   -4.3672   -3.1942 H         1 UNK         0.1631 
     84 H84        28.8035   -5.7918   -5.0602 H         1 UNK         0.0717 
     85 H85        30.1538   -5.8931   -6.1584 H         1 UNK         0.0717 
     86 H86        26.2101   -4.3853   -6.1180 H         1 UNK         0.0934 
     87 H87        27.3496   -3.4622   -5.1785 H         1 UNK         0.0934 
     88 H88        26.6343   -2.6670   -8.0344 H         1 UNK         0.0739 
     89 H89        25.1323   -1.6573   -5.6667 H         1 UNK         0.3093 
     90 H90        22.6267   -0.4974   -7.8160 H         1 UNK         0.0818 
     91 H91        20.9400   -1.7151   -6.4592 H         1 UNK         0.0819 
     92 H92        21.7150   -2.8214   -7.5787 H         1 UNK         0.0819 
     93 H93        22.1728   -2.8382   -5.8815 H         1 UNK         0.0819 
     94 H94        22.6102   -0.5344   -5.0087 H         1 UNK         0.3041 
     95 H95        25.1139    1.8097   -4.2525 H         1 UNK         0.0784 
     96 H96        23.2660    3.3058   -5.0211 H         1 UNK         0.0793 
     97 H97        22.0801    2.2550   -4.2583 H         1 UNK         0.0793 
     98 H98        23.2583    3.1264   -3.2755 H         1 UNK         0.0793 
     99 H99        23.1617    0.7101   -2.5686 H         1 UNK         0.3024 
    100 H100       23.7354   -0.8682   -1.0517 H         1 UNK         0.1171 
    101 H101       22.4859   -2.3495   -2.6881 H         1 UNK         0.0786 
    102 H102       23.1290   -3.2948   -1.3595 H         1 UNK         0.0786 
    103 H103       23.9361   -3.3160   -2.9254 H         1 UNK         0.0786 
    104 H104       26.3331   -1.6916   -1.7949 H         1 UNK         0.2977 
    105 H105       26.8987   -0.8554   -4.9065 H         1 UNK         0.3127 
    106 H106       29.5524   -0.0791   -5.2809 H         1 UNK         0.0770 
    107 H107       27.3710    1.2557   -3.5964 H         1 UNK         0.0814 
    108 H108       29.1028    1.4853   -3.3977 H         1 UNK         0.0814 
    109 H109       28.3925   -0.0914   -3.0954 H         1 UNK         0.0814 
    110 H110       26.6777    1.4960   -6.6525 H         1 UNK         0.2983 
    111 H111       28.3536    3.7904   -7.5883 H         1 UNK         0.0947 
    112 H112       26.2328    4.8740   -8.0890 H         1 UNK         0.0806 
    113 H113       26.1526    4.2807   -6.4380 H         1 UNK         0.0806 
    114 H114       25.3195    3.4197   -7.7326 H         1 UNK         0.0806 
    115 H115       27.4924    0.7005   -8.6229 H         1 UNK         0.3000 
    116 H116       27.1895    1.4428  -11.5012 H         1 UNK         0.0850 
    117 H117       26.3917   -0.8844  -11.7662 H         1 UNK         0.0810 
    118 H118       25.4399   -0.0569  -10.5431 H         1 UNK         0.0810 
    119 H119       26.6770   -1.2150  -10.0640 H         1 UNK         0.0810 
    120 H120       29.1495   -0.4954   -9.2197 H         1 UNK         0.3040 
    121 H121       30.9652   -1.5576  -11.1811 H         1 UNK         0.0766 
    122 H122       32.1905   -2.3111   -9.1085 H         1 UNK         0.0812 
    123 H123       30.4762   -2.6690   -8.9983 H         1 UNK         0.0812 
    124 H124       31.1414   -1.2971   -8.1242 H         1 UNK         0.0812 
    125 H125       33.3358   -1.2280  -10.9768 H         1 UNK         0.3205 
    126 H126       34.1223    1.3468  -11.7154 H         1 UNK         0.0754 
    127 H127       36.4296    0.3713  -11.6618 H         1 UNK         0.0769 
    128 H128       35.2907   -0.7240  -12.4230 H         1 UNK         0.0769 
    129 H129       35.8308   -1.0195  -10.7689 H         1 UNK         0.0769 
    130 H130       33.7774    0.1717   -8.4807 H         1 UNK         0.2981 
    131 H131       35.5512    2.0684   -7.2138 H         1 UNK         0.0541 
    132 H132       32.4344    2.5471   -8.7373 H         1 UNK         0.3459 
    133 H133       32.1325    4.0839   -7.9592 H         1 UNK         0.3459 
    134 H134       34.5014    1.3556   -5.1002 H         1 UNK         0.0612 
    135 H135       35.0721    0.0155   -6.0461 H         1 UNK         0.0612 
    136 H136       33.3888   -2.1778   -6.4775 H         1 UNK         0.0624 
    137 H137       33.9293   -1.7249   -4.8760 H         1 UNK         0.0624 
@<TRIPOS>BOND
     1    1    2 1    
     2    1   72 1    
     3    1   73 1    
     4    1   74 1    
     5    2    3 2    
     6    2    4 am   BACKBONE|DICT|INTERRES
     7    4    5 1    
     8    4   75 1    
     9    5    6 1    
    10    5   35 1    
    11    5   76 1    
    12    6    7 1    
    13    6   77 1    
    14    6   78 1    
    15    7    8 1    
    16    8    9 1    
    17    8   79 1    
    18    8   80 1    
    19    9   10 ar   
    20    9   14 ar   
    21   10   11 ar   
    22   10   81 1    
    23   11   12 ar   
    24   11   71 1    
    25   12   13 ar   
    26   12   82 1    
    27   13   14 ar   
    28   13   15 1    
    29   14   83 1    
    30   15   16 1    
    31   15   84 1    
    32   15   85 1    
    33   16   17 1    
    34   17   18 1    
    35   17   86 1    
    36   17   87 1    
    37   18   19 1    
    38   18   37 1    
    39   18   88 1    
    40   19   20 am   BACKBONE|DICT|INTERRES
    41   19   89 1    
    42   20   21 2    
    43   20   22 1    
    44   22   23 1    
    45   22   24 1    
    46   22   90 1    
    47   23   91 1    
    48   23   92 1    
    49   23   93 1    
    50   24   25 am   BACKBONE|DICT|INTERRES
    51   24   94 1    
    52   25   26 2    
    53   25   27 1    
    54   27   28 1    
    55   27   29 1    
    56   27   95 1    
    57   28   96 1    
    58   28   97 1    
    59   28   98 1    
    60   29   30 am   BACKBONE|DICT|INTERRES
    61   29   99 1    
    62   30   31 2    
    63   30   32 1    
    64   32   33 1    
    65   32   34 1    
    66   32  100 1    
    67   33  101 1    
    68   33  102 1    
    69   33  103 1    
    70   34   35 am   BACKBONE|DICT|INTERRES
    71   34  104 1    
    72   35   36 2    
    73   37   38 2    
    74   37   39 am   BACKBONE|DICT|INTERRES
    75   39   40 1    
    76   39  105 1    
    77   40   41 1    
    78   40   42 1    
    79   40  106 1    
    80   41  107 1    
    81   41  108 1    
    82   41  109 1    
    83   42   43 2    
    84   42   44 am   BACKBONE|DICT|INTERRES
    85   44   45 1    
    86   44  110 1    
    87   45   46 1    
    88   45   47 1    
    89   45  111 1    
    90   46  112 1    
    91   46  113 1    
    92   46  114 1    
    93   47   48 2    
    94   47   49 am   BACKBONE|DICT|INTERRES
    95   49   50 1    
    96   49  115 1    
    97   50   51 1    
    98   50   52 1    
    99   50  116 1    
   100   51  117 1    
   101   51  118 1    
   102   51  119 1    
   103   52   53 2    
   104   52   54 am   BACKBONE|DICT|INTERRES
   105   54   55 1    
   106   54  120 1    
   107   55   56 1    
   108   55   57 1    
   109   55  121 1    
   110   56  122 1    
   111   56  123 1    
   112   56  124 1    
   113   57   58 2    
   114   57   59 am   BACKBONE|DICT|INTERRES
   115   59   60 1    
   116   59  125 1    
   117   60   61 1    
   118   60   62 1    
   119   60  126 1    
   120   61  127 1    
   121   61  128 1    
   122   61  129 1    
   123   62   63 2    
   124   62   64 am   BACKBONE|DICT|INTERRES
   125   64   65 1    
   126   64  130 1    
   127   65   66 1    
   128   65   69 1    
   129   65  131 1    
   130   66   67 am   BACKBONE|DICT|INTERRES
   131   66   68 2    
   132   67  132 1    
   133   67  133 1    
   134   69   70 1    
   135   69  134 1    
   136   69  135 1    
   137   70   71 1    
   138   71  136 1    
   139   71  137 1    
@<TRIPOS>SUBSTRUCTURE
     1 UNK         1 GROUP             0       ****    0 ROOT    
