@<TRIPOS>MOLECULE
3R137
137   139    1
SMALL
USER_CHARGES


@<TRIPOS>ATOM
      1 CA         24.9076   -6.6607   -4.4004 C.3       0 UNK        -0.2020 
      2 C          25.8387   -5.5440   -3.9544 C.2       0 UNK         0.4855 
      3 O          26.1489   -4.6599   -4.7506 O.2       0 UNK        -0.5197 
      4 N          26.2683   -5.5738   -2.6850 N.am      1 UNK        -0.4892 
      5 CA         27.1869   -4.6247   -2.0389 C.3       1 UNK         0.0835 
      6 C6         28.6622   -4.8145   -2.4905 C.3       12 UNK        -0.0855 
      7 S7         29.8118   -4.5511   -1.0987 S.3       12 UNK        -0.2931 
      8 C8         31.3020   -3.9327   -1.9434 C.3       12 UNK         0.0378 
      9 C9         31.1658   -2.4943   -2.4283 C.ar      12 UNK        -0.0802 
     10 C10        31.4175   -2.1809   -3.7668 C.ar      12 UNK        -0.0944 
     11 C11        31.3601   -0.8559   -4.2069 C.ar      12 UNK        -0.0787 
     12 C12        31.0545    0.1594   -3.2989 C.ar      12 UNK        -0.0862 
     13 C13        30.7416   -0.1426   -1.9700 C.ar      12 UNK        -0.0733 
     14 C14        30.8215   -1.4708   -1.5378 C.ar      12 UNK        -0.0832 
     15 C15        30.3060    0.9478   -0.9922 C.3       12 UNK         0.0240 
     16 S16        29.1350    2.1708   -1.6912 S.3       12 UNK        -0.2522 
     17 C17        27.8510    1.1222   -2.4595 C.3       12 UNK        -0.0967 
     18 CA         27.8718    1.2361   -4.0091 C.3       5 UNK         0.0660 
     19 N          27.5821   -0.0380   -4.6719 N.am      5 UNK        -0.4015 
     20 C          27.7597   -0.2721   -5.9816 C.2       4 UNK         0.4946 
     21 O          28.2307    0.5459   -6.7724 O.2       4 UNK        -0.5353 
     22 CA         27.2906   -1.6335   -6.5156 C.3       4 UNK         0.0277 
     23 CB         28.3646   -2.7065   -6.2842 C.3       4 UNK        -0.1981 
     24 N          26.0210   -2.0579   -5.9213 N.am      4 UNK        -0.4209 
     25 C          24.8610   -1.4000   -6.0690 C.2       3 UNK         0.4942 
     26 O          24.7245   -0.3980   -6.7704 O.2       3 UNK        -0.5208 
     27 CA         23.6635   -1.9073   -5.2516 C.3       3 UNK         0.0250 
     28 CB         23.0602   -3.1752   -5.8770 C.3       3 UNK        -0.1990 
     29 N          24.0135   -2.1512   -3.8505 N.am      3 UNK        -0.4232 
     30 C          24.3879   -1.1963   -2.9859 C.2       2 UNK         0.4993 
     31 O          24.4524   -0.0014   -3.2685 O.2       2 UNK        -0.5286 
     32 CA         24.7957   -1.6483   -1.5753 C.3       2 UNK         0.0209 
     33 CB         23.5701   -1.7044   -0.6497 C.3       2 UNK        -0.1931 
     34 N          25.4845   -2.9412   -1.5601 N.am      2 UNK        -0.4546 
     35 C          26.6754   -3.1695   -2.1328 C.2       1 UNK         0.5154 
     36 O          27.3045   -2.3080   -2.7513 O.2       1 UNK        -0.5181 
     37 C          26.9810    2.3858   -4.5220 C.2       5 UNK         0.5014 
     38 O          27.5001    3.4632   -4.8170 O.2       5 UNK        -0.5248 
     39 N          25.6693    2.1349   -4.6486 N.am      6 UNK        -0.4434 
     40 CA         24.6883    3.0795   -5.1898 C.3       6 UNK         0.0363 
     41 CB         23.2678    2.5351   -4.9704 C.3       6 UNK        -0.1936 
     42 C          24.9208    3.4020   -6.6751 C.2       6 UNK         0.5081 
     43 O          24.8012    4.5638   -7.0656 O.2       6 UNK        -0.5248 
     44 N          25.2591    2.3792   -7.4724 N.am      7 UNK        -0.4718 
     45 CA         25.6072    2.5182   -8.8889 C.3       7 UNK         0.0273 
     46 CB         25.5868    1.1314   -9.5523 C.3       7 UNK        -0.1935 
     47 C          26.9724    3.1901   -9.1180 C.2       7 UNK         0.5018 
     48 O          27.1585    3.8157  -10.1624 O.2       7 UNK        -0.5186 
     49 N          27.8950    3.0212   -8.1576 N.am      8 UNK        -0.4240 
     50 CA         29.3188    3.3728   -8.2047 C.3       8 UNK         0.0235 
     51 CB         29.5169    4.9023   -8.2599 C.3       8 UNK        -0.2000 
     52 C          30.0319    2.6152   -9.3405 C.2       8 UNK         0.4941 
     53 O          30.7202    3.2260  -10.1613 O.2       8 UNK        -0.5273 
     54 N          29.8047    1.2974   -9.3861 N.am      9 UNK        -0.4262 
     55 CA         30.2403    0.3968  -10.4514 C.3       9 UNK         0.0264 
     56 CB         29.0091    0.0100  -11.2903 C.3       9 UNK        -0.1955 
     57 C          30.8979   -0.8494   -9.8496 C.2       9 UNK         0.5031 
     58 O          30.7590   -1.0981   -8.6531 O.2       9 UNK        -0.5390 
     59 N          31.5941   -1.6196  -10.6957 N.am      10 UNK        -0.4204 
     60 CA         32.2819   -2.8916  -10.4209 C.3       10 UNK         0.0237 
     61 CB         31.3219   -3.9571   -9.8525 C.3       10 UNK        -0.1985 
     62 C          33.5529   -2.7714   -9.5599 C.2       10 UNK         0.4970 
     63 O          34.5647   -3.3749   -9.9191 O.2       10 UNK        -0.4914 
     64 N          33.5008   -2.0050   -8.4634 N.am      11 UNK        -0.4285 
     65 CA         34.6501   -1.7433   -7.5771 C.3       11 UNK         0.1007 
     66 C          35.7084   -0.7486   -8.1423 C.2       11 UNK         0.5703 
     67 N          35.4529   -0.0591   -9.2484 N.am      11 UNK        -0.7361 
     68 O          36.7903   -0.6148   -7.5749 O.2       11 UNK        -0.4986 
     69 C69        34.2116   -1.3877   -6.1309 C.3       12 UNK        -0.0947 
     70 S70        33.2280    0.1451   -6.0073 S.3       12 UNK        -0.2240 
     71 C71        31.5718   -0.5205   -5.6728 C.3       12 UNK         0.0194 
     72 H72        25.3128   -7.1536   -5.2837 H         1 UNK         0.0906 
     73 H73        24.7716   -7.4146   -3.6253 H         1 UNK         0.0906 
     74 H74        23.9292   -6.2552   -4.6560 H         1 UNK         0.0906 
     75 H75        25.9521   -6.3272   -2.0889 H         1 UNK         0.3140 
     76 H76        27.1312   -4.8814   -0.9793 H         1 UNK         0.1085 
     77 H77        28.9214   -4.1762   -3.3360 H         1 UNK         0.0836 
     78 H78        28.8224   -5.8359   -2.8389 H         1 UNK         0.0836 
     79 H79        31.5472   -4.6050   -2.7672 H         1 UNK         0.0731 
     80 H80        32.1413   -3.9835   -1.2485 H         1 UNK         0.0731 
     81 H81        31.6610   -2.9678   -4.4672 H         1 UNK         0.1312 
     82 H82        31.0230    1.1843   -3.6403 H         1 UNK         0.1406 
     83 H83        30.6075   -1.7158   -0.5063 H         1 UNK         0.1631 
     84 H84        31.1923    1.4744   -0.6368 H         1 UNK         0.0717 
     85 H85        29.8388    0.5016   -0.1129 H         1 UNK         0.0717 
     86 H86        28.0250    0.0928   -2.1468 H         1 UNK         0.0934 
     87 H87        26.8749    1.3824   -2.0448 H         1 UNK         0.0934 
     88 H88        28.8838    1.4902   -4.3249 H         1 UNK         0.0739 
     89 H89        27.2542   -0.7976   -4.0824 H         1 UNK         0.3093 
     90 H90        27.1355   -1.5337   -7.5918 H         1 UNK         0.0818 
     91 H91        29.2910   -2.4437   -6.7950 H         1 UNK         0.0819 
     92 H92        28.0480   -3.6769   -6.6665 H         1 UNK         0.0819 
     93 H93        28.5951   -2.8212   -5.2250 H         1 UNK         0.0819 
     94 H94        26.0452   -2.9027   -5.3518 H         1 UNK         0.3041 
     95 H95        22.8992   -1.1272   -5.2690 H         1 UNK         0.0784 
     96 H96        22.7486   -2.9878   -6.9055 H         1 UNK         0.0793 
     97 H97        23.7739   -3.9986   -5.9009 H         1 UNK         0.0793 
     98 H98        22.1790   -3.5087   -5.3286 H         1 UNK         0.0793 
     99 H99        24.0251   -3.1110   -3.5395 H         1 UNK         0.3024 
    100 H100       25.4869   -0.8982   -1.1838 H         1 UNK         0.1171 
    101 H101       23.8577   -1.9339    0.3765 H         1 UNK         0.0786 
    102 H102       23.0521   -0.7442   -0.6315 H         1 UNK         0.0786 
    103 H103       22.8502   -2.4567   -0.9743 H         1 UNK         0.0786 
    104 H104       25.0156   -3.7047   -1.0936 H         1 UNK         0.2977 
    105 H105       25.3026    1.2421   -4.3206 H         1 UNK         0.3127 
    106 H106       24.7843    4.0125   -4.6306 H         1 UNK         0.0770 
    107 H107       23.1216    1.5775   -5.4717 H         1 UNK         0.0814 
    108 H108       22.5191    3.2265   -5.3590 H         1 UNK         0.0814 
    109 H109       23.0582    2.3917   -3.9103 H         1 UNK         0.0814 
    110 H110       25.2621    1.4363   -7.0896 H         1 UNK         0.2983 
    111 H111       24.8484    3.1404   -9.3686 H         1 UNK         0.0947 
    112 H112       25.8237    1.2009  -10.6148 H         1 UNK         0.0806 
    113 H113       24.6049    0.6655   -9.4677 H         1 UNK         0.0806 
    114 H114       26.3156    0.4589   -9.0979 H         1 UNK         0.0806 
    115 H115       27.6406    2.4183   -7.3821 H         1 UNK         0.3000 
    116 H116       29.7542    3.0143   -7.2703 H         1 UNK         0.0850 
    117 H117       30.5742    5.1594   -8.1865 H         1 UNK         0.0810 
    118 H118       29.0041    5.3958   -7.4342 H         1 UNK         0.0810 
    119 H119       29.1433    5.3293   -9.1909 H         1 UNK         0.0810 
    120 H120       29.3127    0.8572   -8.6132 H         1 UNK         0.3040 
    121 H121       30.9751    0.8894  -11.0916 H         1 UNK         0.0766 
    122 H122       28.5244    0.8925  -11.7090 H         1 UNK         0.0812 
    123 H123       28.2684   -0.5243  -10.6936 H         1 UNK         0.0812 
    124 H124       29.2826   -0.6347  -12.1263 H         1 UNK         0.0812 
    125 H125       31.6646   -1.3053  -11.6543 H         1 UNK         0.3205 
    126 H126       32.6101   -3.2513  -11.3977 H         1 UNK         0.0754 
    127 H127       31.8185   -4.9254   -9.7776 H         1 UNK         0.0769 
    128 H128       30.4509   -4.0885  -10.4944 H         1 UNK         0.0769 
    129 H129       30.9663   -3.7011   -8.8539 H         1 UNK         0.0769 
    130 H130       32.6256   -1.5390   -8.2425 H         1 UNK         0.2981 
    131 H131       35.1904   -2.6881   -7.4909 H         1 UNK         0.0541 
    132 H132       34.5696   -0.1606   -9.7199 H         1 UNK         0.3459 
    133 H133       36.1492    0.5753   -9.6064 H         1 UNK         0.3459 
    134 H134       35.0842   -1.2797   -5.4845 H         1 UNK         0.0612 
    135 H135       33.6464   -2.2191   -5.7094 H         1 UNK         0.0612 
    136 H136       31.4082   -1.4102   -6.2785 H         1 UNK         0.0624 
    137 H137       30.8298    0.2119   -5.9927 H         1 UNK         0.0624 
@<TRIPOS>BOND
     1    1    2 1    
     2    1   72 1    
     3    1   73 1    
     4    1   74 1    
     5    2    3 2    
     6    2    4 am   BACKBONE|DICT|INTERRES
     7    4    5 1    
     8    4   75 1    
     9    5    6 1    
    10    5   35 1    
    11    5   76 1    
    12    6    7 1    
    13    6   77 1    
    14    6   78 1    
    15    7    8 1    
    16    8    9 1    
    17    8   79 1    
    18    8   80 1    
    19    9   10 ar   
    20    9   14 ar   
    21   10   11 ar   
    22   10   81 1    
    23   11   12 ar   
    24   11   71 1    
    25   12   13 ar   
    26   12   82 1    
    27   13   14 ar   
    28   13   15 1    
    29   14   83 1    
    30   15   16 1    
    31   15   84 1    
    32   15   85 1    
    33   16   17 1    
    34   17   18 1    
    35   17   86 1    
    36   17   87 1    
    37   18   19 1    
    38   18   37 1    
    39   18   88 1    
    40   19   20 am   BACKBONE|DICT|INTERRES
    41   19   89 1    
    42   20   21 2    
    43   20   22 1    
    44   22   23 1    
    45   22   24 1    
    46   22   90 1    
    47   23   91 1    
    48   23   92 1    
    49   23   93 1    
    50   24   25 am   BACKBONE|DICT|INTERRES
    51   24   94 1    
    52   25   26 2    
    53   25   27 1    
    54   27   28 1    
    55   27   29 1    
    56   27   95 1    
    57   28   96 1    
    58   28   97 1    
    59   28   98 1    
    60   29   30 am   BACKBONE|DICT|INTERRES
    61   29   99 1    
    62   30   31 2    
    63   30   32 1    
    64   32   33 1    
    65   32   34 1    
    66   32  100 1    
    67   33  101 1    
    68   33  102 1    
    69   33  103 1    
    70   34   35 am   BACKBONE|DICT|INTERRES
    71   34  104 1    
    72   35   36 2    
    73   37   38 2    
    74   37   39 am   BACKBONE|DICT|INTERRES
    75   39   40 1    
    76   39  105 1    
    77   40   41 1    
    78   40   42 1    
    79   40  106 1    
    80   41  107 1    
    81   41  108 1    
    82   41  109 1    
    83   42   43 2    
    84   42   44 am   BACKBONE|DICT|INTERRES
    85   44   45 1    
    86   44  110 1    
    87   45   46 1    
    88   45   47 1    
    89   45  111 1    
    90   46  112 1    
    91   46  113 1    
    92   46  114 1    
    93   47   48 2    
    94   47   49 am   BACKBONE|DICT|INTERRES
    95   49   50 1    
    96   49  115 1    
    97   50   51 1    
    98   50   52 1    
    99   50  116 1    
   100   51  117 1    
   101   51  118 1    
   102   51  119 1    
   103   52   53 2    
   104   52   54 am   BACKBONE|DICT|INTERRES
   105   54   55 1    
   106   54  120 1    
   107   55   56 1    
   108   55   57 1    
   109   55  121 1    
   110   56  122 1    
   111   56  123 1    
   112   56  124 1    
   113   57   58 2    
   114   57   59 am   BACKBONE|DICT|INTERRES
   115   59   60 1    
   116   59  125 1    
   117   60   61 1    
   118   60   62 1    
   119   60  126 1    
   120   61  127 1    
   121   61  128 1    
   122   61  129 1    
   123   62   63 2    
   124   62   64 am   BACKBONE|DICT|INTERRES
   125   64   65 1    
   126   64  130 1    
   127   65   66 1    
   128   65   69 1    
   129   65  131 1    
   130   66   67 am   BACKBONE|DICT|INTERRES
   131   66   68 2    
   132   67  132 1    
   133   67  133 1    
   134   69   70 1    
   135   69  134 1    
   136   69  135 1    
   137   70   71 1    
   138   71  136 1    
   139   71  137 1    
@<TRIPOS>SUBSTRUCTURE
     1 UNK         1 GROUP             0       ****    0 ROOT    
