@<TRIPOS>MOLECULE
3R137
137   139    1
SMALL
USER_CHARGES


@<TRIPOS>ATOM
      1 CA         27.1023   -5.3593   -1.2171 C.3       0 UNK        -0.2020 
      2 C          27.8073   -5.3225    0.1384 C.2       0 UNK         0.4855 
      3 O          28.0614   -6.3878    0.6965 O.2       0 UNK        -0.5197 
      4 N          28.1528   -4.1636    0.7230 N.am      1 UNK        -0.4892 
      5 CA         27.9460   -2.7724    0.2882 C.3       1 UNK         0.0835 
      6 C6         28.9373   -2.3001   -0.8148 C.3       12 UNK        -0.0855 
      7 S7         30.6835   -2.4213   -0.2986 S.3       12 UNK        -0.2931 
      8 C8         31.2359   -3.9439   -1.1338 C.3       12 UNK         0.0378 
      9 C9         31.1806   -3.8265   -2.6509 C.ar      12 UNK        -0.0802 
     10 C10        32.1192   -3.0479   -3.3306 C.ar      12 UNK        -0.0944 
     11 C11        32.0904   -2.9457   -4.7264 C.ar      12 UNK        -0.0787 
     12 C12        31.1063   -3.6429   -5.4405 C.ar      12 UNK        -0.0862 
     13 C13        30.1662   -4.4401   -4.7717 C.ar      12 UNK        -0.0733 
     14 C14        30.2136   -4.5246   -3.3778 C.ar      12 UNK        -0.0832 
     15 C15        29.1553   -5.2977   -5.5306 C.3       12 UNK         0.0240 
     16 S16        28.2849   -4.4337   -6.8751 S.3       12 UNK        -0.2522 
     17 C17        27.0826   -3.3904   -5.9788 C.3       12 UNK        -0.0967 
     18 CA         26.6580   -2.1872   -6.8581 C.3       5 UNK         0.0660 
     19 N          25.3330   -1.6520   -6.5303 N.am      5 UNK        -0.4015 
     20 C          24.6428   -0.8397   -7.3480 C.2       4 UNK         0.4946 
     21 O          25.0408   -0.4803   -8.4561 O.2       4 UNK        -0.5353 
     22 CA         23.2999   -0.3015   -6.8312 C.3       4 UNK         0.0277 
     23 CB         22.2138   -1.3883   -6.8852 C.3       4 UNK        -0.1981 
     24 N          23.3950    0.2407   -5.4760 N.am      4 UNK        -0.4209 
     25 C          24.1521    1.2910   -5.1264 C.2       3 UNK         0.4942 
     26 O          24.8297    1.9472   -5.9159 O.2       3 UNK        -0.5208 
     27 CA         24.1926    1.6436   -3.6313 C.3       3 UNK         0.0250 
     28 CB         23.0504    2.6082   -3.2744 C.3       3 UNK        -0.1990 
     29 N          24.1452    0.4744   -2.7465 N.am      3 UNK        -0.4232 
     30 C          25.0422   -0.5206   -2.7436 C.2       2 UNK         0.4993 
     31 O          25.9869   -0.6117   -3.5353 O.2       2 UNK        -0.5286 
     32 CA         24.8420   -1.6191   -1.7002 C.3       2 UNK         0.0209 
     33 CB         24.1255   -2.8362   -2.3118 C.3       2 UNK        -0.1931 
     34 N          26.1656   -2.0032   -1.2320 N.am      2 UNK        -0.4546 
     35 C          26.4601   -2.4804   -0.0185 C.2       1 UNK         0.5154 
     36 O          25.6126   -2.7016    0.8489 O.2       1 UNK        -0.5181 
     37 C          27.7240   -1.0802   -6.8605 C.2       5 UNK         0.5014 
     38 O          28.5426   -1.0436   -7.7790 O.2       5 UNK        -0.5248 
     39 N          27.6671   -0.1752   -5.8703 N.am      6 UNK        -0.4434 
     40 CA         28.5554    0.9830   -5.7695 C.3       6 UNK         0.0363 
     41 CB         28.2583    1.7725   -4.4867 C.3       6 UNK        -0.1936 
     42 C          28.4935    1.8901   -7.0088 C.2       6 UNK         0.5081 
     43 O          29.5444    2.2624   -7.5291 O.2       6 UNK        -0.5248 
     44 N          27.2759    2.1779   -7.4893 N.am      7 UNK        -0.4718 
     45 CA         27.0305    2.9154   -8.7281 C.3       7 UNK         0.0273 
     46 CB         25.5424    3.2882   -8.8242 C.3       7 UNK        -0.1935 
     47 C          27.4816    2.1467   -9.9809 C.2       7 UNK         0.5018 
     48 O          28.1694    2.7284  -10.8202 O.2       7 UNK        -0.5186 
     49 N          27.0963    0.8655  -10.0883 N.am      8 UNK        -0.4240 
     50 CA         27.3887    0.0084  -11.2427 C.3       8 UNK         0.0235 
     51 CB         26.6039   -1.3085  -11.1325 C.3       8 UNK        -0.2000 
     52 C          28.8860   -0.2754  -11.4398 C.2       8 UNK         0.4941 
     53 O          29.3685   -0.2024  -12.5708 O.2       8 UNK        -0.5273 
     54 N          29.5938   -0.5882  -10.3468 N.am      9 UNK        -0.4262 
     55 CA         31.0304   -0.8724  -10.3536 C.3       9 UNK         0.0264 
     56 CB         31.3686   -1.7641   -9.1462 C.3       9 UNK        -0.1955 
     57 C          31.9017    0.3957  -10.3361 C.2       9 UNK         0.5031 
     58 O          33.1054    0.2822  -10.5725 O.2       9 UNK        -0.5390 
     59 N          31.3022    1.5571  -10.0232 N.am      10 UNK        -0.4204 
     60 CA         31.9541    2.8400   -9.7225 C.3       10 UNK         0.0237 
     61 CB         32.6350    3.4310  -10.9755 C.3       10 UNK        -0.1985 
     62 C          32.8999    2.7082   -8.5114 C.2       10 UNK         0.4970 
     63 O          34.0595    3.1228   -8.5725 O.2       10 UNK        -0.4914 
     64 N          32.3842    2.0732   -7.4525 N.am      11 UNK        -0.4285 
     65 CA         33.1132    1.7309   -6.2277 C.3       11 UNK         0.1007 
     66 C          33.3874    2.9646   -5.3231 C.2       11 UNK         0.5703 
     67 N          34.4030    2.8942   -4.4736 N.am      11 UNK        -0.7361 
     68 O          32.6769    3.9681   -5.3597 O.2       11 UNK        -0.4986 
     69 C69        32.4013    0.5798   -5.4605 C.3       12 UNK        -0.0947 
     70 S70        33.5963   -0.5630   -4.6944 S.3       12 UNK        -0.2240 
     71 C71        33.1738   -2.1641   -5.4689 C.3       12 UNK         0.0194 
     72 H72        27.3376   -6.2879   -1.7368 H         1 UNK         0.0906 
     73 H73        26.0223   -5.3238   -1.0766 H         1 UNK         0.0906 
     74 H74        27.3896   -4.5425   -1.8726 H         1 UNK         0.0906 
     75 H75        28.5996   -4.2325    1.6267 H         1 UNK         0.3140 
     76 H76        28.1578   -2.1665    1.1712 H         1 UNK         0.1085 
     77 H77        28.7882   -2.8319   -1.7518 H         1 UNK         0.0836 
     78 H78        28.7675   -1.2462   -1.0443 H         1 UNK         0.0836 
     79 H79        32.2613   -4.1577   -0.8290 H         1 UNK         0.0731 
     80 H80        30.6369   -4.7859   -0.7850 H         1 UNK         0.0731 
     81 H81        32.8834   -2.5314   -2.7660 H         1 UNK         0.1312 
     82 H82        31.0920   -3.5956   -6.5208 H         1 UNK         0.1406 
     83 H83        29.5117   -5.1591   -2.8560 H         1 UNK         0.1631 
     84 H84        29.6890   -6.1461   -5.9608 H         1 UNK         0.0717 
     85 H85        28.4108   -5.7190   -4.8530 H         1 UNK         0.0717 
     86 H86        26.2190   -4.0159   -5.7473 H         1 UNK         0.0934 
     87 H87        27.4934   -3.0677   -5.0193 H         1 UNK         0.0934 
     88 H88        26.5791   -2.5471   -7.8868 H         1 UNK         0.0739 
     89 H89        24.9698   -1.8497   -5.6099 H         1 UNK         0.3093 
     90 H90        22.9976    0.5139   -7.4922 H         1 UNK         0.0818 
     91 H91        21.2372   -0.9857   -6.6156 H         1 UNK         0.0819 
     92 H92        22.1248   -1.7992   -7.8920 H         1 UNK         0.0819 
     93 H93        22.4316   -2.2187   -6.2125 H         1 UNK         0.0819 
     94 H94        22.8677   -0.2283   -4.7544 H         1 UNK         0.3041 
     95 H95        25.1377    2.1557   -3.4422 H         1 UNK         0.0784 
     96 H96        23.0778    3.4958   -3.9085 H         1 UNK         0.0793 
     97 H97        22.0717    2.1448   -3.4050 H         1 UNK         0.0793 
     98 H98        23.1263    2.9495   -2.2418 H         1 UNK         0.0793 
     99 H99        23.3969    0.4577   -2.0679 H         1 UNK         0.3024 
    100 H100       24.2565   -1.2239   -0.8664 H         1 UNK         0.1171 
    101 H101       23.9755   -3.6201   -1.5693 H         1 UNK         0.0786 
    102 H102       23.1416   -2.5619   -2.6943 H         1 UNK         0.0786 
    103 H103       24.6928   -3.2654   -3.1389 H         1 UNK         0.0786 
    104 H104       26.9038   -1.7956   -1.8929 H         1 UNK         0.2977 
    105 H105       26.9768   -0.2898   -5.1313 H         1 UNK         0.3127 
    106 H106       29.5693    0.5921   -5.6973 H         1 UNK         0.0770 
    107 H107       27.2574    2.2025   -4.5025 H         1 UNK         0.0814 
    108 H108       28.9647    2.5948   -4.3655 H         1 UNK         0.0814 
    109 H109       28.3393    1.1403   -3.6023 H         1 UNK         0.0814 
    110 H110       26.4559    1.8669   -6.9739 H         1 UNK         0.2983 
    111 H111       27.6088    3.8409   -8.6841 H         1 UNK         0.0947 
    112 H112       25.3352    3.8428   -9.7404 H         1 UNK         0.0806 
    113 H113       25.2385    3.9178   -7.9877 H         1 UNK         0.0806 
    114 H114       24.9032    2.4041   -8.8232 H         1 UNK         0.0806 
    115 H115       26.5084    0.4638   -9.3620 H         1 UNK         0.3000 
    116 H116       27.0377    0.5332  -12.1338 H         1 UNK         0.0850 
    117 H117       26.7991   -1.9545  -11.9895 H         1 UNK         0.0810 
    118 H118       25.5293   -1.1279  -11.1020 H         1 UNK         0.0810 
    119 H119       26.8756   -1.8646  -10.2348 H         1 UNK         0.0810 
    120 H120       29.1200   -0.6630   -9.4452 H         1 UNK         0.3040 
    121 H121       31.2765   -1.4272  -11.2616 H         1 UNK         0.0766 
    122 H122       30.7745   -2.6782   -9.1470 H         1 UNK         0.0812 
    123 H123       31.1844   -1.2482   -8.2035 H         1 UNK         0.0812 
    124 H124       32.4189   -2.0580   -9.1576 H         1 UNK         0.0812 
    125 H125       30.3074    1.5298   -9.8405 H         1 UNK         0.3205 
    126 H126       31.1609    3.5269   -9.4233 H         1 UNK         0.0754 
    127 H127       33.0198    4.4311  -10.7730 H         1 UNK         0.0769 
    128 H128       31.9316    3.5154  -11.8039 H         1 UNK         0.0769 
    129 H129       33.4755    2.8221  -11.3097 H         1 UNK         0.0769 
    130 H130       31.3838    1.8938   -7.4537 H         1 UNK         0.2981 
    131 H131       34.0863    1.3671   -6.5650 H         1 UNK         0.0541 
    132 H132       34.9685    2.0614   -4.4138 H         1 UNK         0.3459 
    133 H133       34.5941    3.6772   -3.8686 H         1 UNK         0.3459 
    134 H134       31.7739    0.0000   -6.1383 H         1 UNK         0.0612 
    135 H135       31.7288    0.9606   -4.6896 H         1 UNK         0.0612 
    136 H136       34.0751   -2.7779   -5.4838 H         1 UNK         0.0624 
    137 H137       32.9008   -2.0053   -6.5126 H         1 UNK         0.0624 
@<TRIPOS>BOND
     1    1    2 1    
     2    1   72 1    
     3    1   73 1    
     4    1   74 1    
     5    2    3 2    
     6    2    4 am   BACKBONE|DICT|INTERRES
     7    4    5 1    
     8    4   75 1    
     9    5    6 1    
    10    5   35 1    
    11    5   76 1    
    12    6    7 1    
    13    6   77 1    
    14    6   78 1    
    15    7    8 1    
    16    8    9 1    
    17    8   79 1    
    18    8   80 1    
    19    9   10 ar   
    20    9   14 ar   
    21   10   11 ar   
    22   10   81 1    
    23   11   12 ar   
    24   11   71 1    
    25   12   13 ar   
    26   12   82 1    
    27   13   14 ar   
    28   13   15 1    
    29   14   83 1    
    30   15   16 1    
    31   15   84 1    
    32   15   85 1    
    33   16   17 1    
    34   17   18 1    
    35   17   86 1    
    36   17   87 1    
    37   18   19 1    
    38   18   37 1    
    39   18   88 1    
    40   19   20 am   BACKBONE|DICT|INTERRES
    41   19   89 1    
    42   20   21 2    
    43   20   22 1    
    44   22   23 1    
    45   22   24 1    
    46   22   90 1    
    47   23   91 1    
    48   23   92 1    
    49   23   93 1    
    50   24   25 am   BACKBONE|DICT|INTERRES
    51   24   94 1    
    52   25   26 2    
    53   25   27 1    
    54   27   28 1    
    55   27   29 1    
    56   27   95 1    
    57   28   96 1    
    58   28   97 1    
    59   28   98 1    
    60   29   30 am   BACKBONE|DICT|INTERRES
    61   29   99 1    
    62   30   31 2    
    63   30   32 1    
    64   32   33 1    
    65   32   34 1    
    66   32  100 1    
    67   33  101 1    
    68   33  102 1    
    69   33  103 1    
    70   34   35 am   BACKBONE|DICT|INTERRES
    71   34  104 1    
    72   35   36 2    
    73   37   38 2    
    74   37   39 am   BACKBONE|DICT|INTERRES
    75   39   40 1    
    76   39  105 1    
    77   40   41 1    
    78   40   42 1    
    79   40  106 1    
    80   41  107 1    
    81   41  108 1    
    82   41  109 1    
    83   42   43 2    
    84   42   44 am   BACKBONE|DICT|INTERRES
    85   44   45 1    
    86   44  110 1    
    87   45   46 1    
    88   45   47 1    
    89   45  111 1    
    90   46  112 1    
    91   46  113 1    
    92   46  114 1    
    93   47   48 2    
    94   47   49 am   BACKBONE|DICT|INTERRES
    95   49   50 1    
    96   49  115 1    
    97   50   51 1    
    98   50   52 1    
    99   50  116 1    
   100   51  117 1    
   101   51  118 1    
   102   51  119 1    
   103   52   53 2    
   104   52   54 am   BACKBONE|DICT|INTERRES
   105   54   55 1    
   106   54  120 1    
   107   55   56 1    
   108   55   57 1    
   109   55  121 1    
   110   56  122 1    
   111   56  123 1    
   112   56  124 1    
   113   57   58 2    
   114   57   59 am   BACKBONE|DICT|INTERRES
   115   59   60 1    
   116   59  125 1    
   117   60   61 1    
   118   60   62 1    
   119   60  126 1    
   120   61  127 1    
   121   61  128 1    
   122   61  129 1    
   123   62   63 2    
   124   62   64 am   BACKBONE|DICT|INTERRES
   125   64   65 1    
   126   64  130 1    
   127   65   66 1    
   128   65   69 1    
   129   65  131 1    
   130   66   67 am   BACKBONE|DICT|INTERRES
   131   66   68 2    
   132   67  132 1    
   133   67  133 1    
   134   69   70 1    
   135   69  134 1    
   136   69  135 1    
   137   70   71 1    
   138   71  136 1    
   139   71  137 1    
@<TRIPOS>SUBSTRUCTURE
     1 UNK         1 GROUP             0       ****    0 ROOT    
