@<TRIPOS>MOLECULE
3R137
137   139    1
SMALL
USER_CHARGES


@<TRIPOS>ATOM
      1 CA         25.4455   -7.1142   -5.4354 C.3       0 UNK        -0.2020 
      2 C          24.9519   -6.5216   -4.1242 C.2       0 UNK         0.4855 
      3 O          23.7950   -6.7255   -3.7561 O.2       0 UNK        -0.5197 
      4 N          25.8213   -5.7891   -3.4163 N.am      1 UNK        -0.4892 
      5 CA         25.5234   -5.1085   -2.1484 C.3       1 UNK         0.0835 
      6 C6         26.8191   -4.7091   -1.3954 C.3       12 UNK        -0.0855 
      7 S7         28.0126   -3.7872   -2.4240 S.3       12 UNK        -0.2931 
      8 C8         29.4262   -3.6633   -1.2937 C.3       12 UNK         0.0378 
      9 C9         30.4470   -2.6654   -1.8170 C.ar      12 UNK        -0.0802 
     10 C10        31.4361   -3.0706   -2.7195 C.ar      12 UNK        -0.0944 
     11 C11        32.3898   -2.1586   -3.1835 C.ar      12 UNK        -0.0787 
     12 C12        32.3538   -0.8377   -2.7263 C.ar      12 UNK        -0.0862 
     13 C13        31.3568   -0.4148   -1.8431 C.ar      12 UNK        -0.0733 
     14 C14        30.4079   -1.3349   -1.3886 C.ar      12 UNK        -0.0832 
     15 C15        31.3237    1.0262   -1.3526 C.3       12 UNK         0.0240 
     16 S16        30.1296    2.0452   -2.2773 S.3       12 UNK        -0.2522 
     17 C17        30.9738    2.2776   -3.8850 C.3       12 UNK        -0.0967 
     18 CA         30.0882    1.9495   -5.1135 C.3       5 UNK         0.0660 
     19 N          29.4512    0.6350   -5.0064 N.am      5 UNK        -0.4015 
     20 C          28.8581   -0.0127   -6.0173 C.2       4 UNK         0.4946 
     21 O          28.8371    0.3977   -7.1758 O.2       4 UNK        -0.5353 
     22 CA         28.1296   -1.3201   -5.6762 C.3       4 UNK         0.0277 
     23 CB         29.0939   -2.5116   -5.7598 C.3       4 UNK        -0.1981 
     24 N          27.4802   -1.3057   -4.3635 N.am      4 UNK        -0.4209 
     25 C          26.5256   -0.4459   -3.9895 C.2       3 UNK         0.4942 
     26 O          26.1224    0.4811   -4.6942 O.2       3 UNK        -0.5208 
     27 CA         25.9625   -0.6262   -2.5758 C.3       3 UNK         0.0250 
     28 CB         26.6867    0.3276   -1.6128 C.3       3 UNK        -0.1990 
     29 N          24.5258   -0.3561   -2.5076 N.am      3 UNK        -0.4232 
     30 C          23.4814   -0.9563   -3.1071 C.2       2 UNK         0.4993 
     31 O          22.3578   -0.4675   -2.9982 O.2       2 UNK        -0.5286 
     32 CA         23.5930   -2.2692   -3.9251 C.3       2 UNK         0.0209 
     33 CB         23.7419   -2.0066   -5.4349 C.3       2 UNK        -0.1931 
     34 N          24.5607   -3.2816   -3.4935 N.am      2 UNK        -0.4546 
     35 C          24.5457   -3.9207   -2.3137 C.2       1 UNK         0.5154 
     36 O          23.7811   -3.6355   -1.3911 O.2       1 UNK        -0.5181 
     37 C          29.0827    3.0836   -5.4087 C.2       5 UNK         0.5014 
     38 O          29.4354    4.0215   -6.1245 O.2       5 UNK        -0.5248 
     39 N          27.8555    2.9801   -4.8767 N.am      6 UNK        -0.4434 
     40 CA         26.7703    3.9333   -5.1195 C.3       6 UNK         0.0363 
     41 CB         25.7312    3.8385   -3.9901 C.3       6 UNK        -0.1936 
     42 C          26.1164    3.7026   -6.4904 C.2       6 UNK         0.5081 
     43 O          25.7939    4.6693   -7.1809 O.2       6 UNK        -0.5248 
     44 N          25.9578    2.4272   -6.8697 N.am      7 UNK        -0.4718 
     45 CA         25.4428    1.9979   -8.1730 C.3       7 UNK         0.0273 
     46 CB         25.0454    0.5159   -8.0786 C.3       7 UNK        -0.1935 
     47 C          26.4333    2.2092   -9.3349 C.2       7 UNK         0.5018 
     48 O          26.0058    2.1928  -10.4897 O.2       7 UNK        -0.5186 
     49 N          27.7256    2.3697   -9.0105 N.am      8 UNK        -0.4240 
     50 CA         28.8851    2.4095   -9.9111 C.3       8 UNK         0.0235 
     51 CB         28.8287    3.6291  -10.8549 C.3       8 UNK        -0.2000 
     52 C          29.0926    1.0728  -10.6519 C.2       8 UNK         0.4941 
     53 O          29.5057    1.0579  -11.8133 O.2       8 UNK        -0.5273 
     54 N          28.8126   -0.0356   -9.9561 N.am      9 UNK        -0.4262 
     55 CA         28.9359   -1.4045  -10.4471 C.3       9 UNK         0.0264 
     56 CB         27.8840   -2.2797   -9.7407 C.3       9 UNK        -0.1955 
     57 C          30.3695   -1.8949  -10.2054 C.2       9 UNK         0.5031 
     58 O          30.6206   -2.6032   -9.2295 O.2       9 UNK        -0.5390 
     59 N          31.2982   -1.4406  -11.0588 N.am      10 UNK        -0.4204 
     60 CA         32.7538   -1.6716  -11.0497 C.3       10 UNK         0.0237 
     61 CB         33.0971   -3.1716  -11.1442 C.3       10 UNK        -0.1985 
     62 C          33.5022   -1.0027   -9.8800 C.2       10 UNK         0.4970 
     63 O          34.5927   -0.4732  -10.0953 O.2       10 UNK        -0.4914 
     64 N          32.9040   -1.0049   -8.6844 N.am      11 UNK        -0.4285 
     65 CA         33.3820   -0.3129   -7.4779 C.3       11 UNK         0.1007 
     66 C          33.3087    1.2430   -7.5473 C.2       11 UNK         0.5703 
     67 N          32.6672    1.8433   -8.5432 N.am      11 UNK        -0.7361 
     68 O          33.8454    1.9192   -6.6735 O.2       11 UNK        -0.4986 
     69 C69        32.6512   -0.8250   -6.2118 C.3       12 UNK        -0.0947 
     70 S70        32.8876   -2.6045   -5.8874 S.3       12 UNK        -0.2240 
     71 C71        33.4720   -2.6034   -4.1606 C.3       12 UNK         0.0194 
     72 H72        26.4850   -6.8548   -5.6354 H         1 UNK         0.0906 
     73 H73        25.3664   -8.2007   -5.4092 H         1 UNK         0.0906 
     74 H74        24.8395   -6.7482   -6.2638 H         1 UNK         0.0906 
     75 H75        26.7651   -5.6600   -3.7555 H         1 UNK         0.3140 
     76 H76        24.9995   -5.8303   -1.5173 H         1 UNK         0.1085 
     77 H77        27.3152   -5.6125   -1.0365 H         1 UNK         0.0836 
     78 H78        26.5867   -4.1258   -0.5018 H         1 UNK         0.0836 
     79 H79        29.8843   -4.6464   -1.1747 H         1 UNK         0.0731 
     80 H80        29.0790   -3.3612   -0.3042 H         1 UNK         0.0731 
     81 H81        31.4627   -4.0959   -3.0628 H         1 UNK         0.1312 
     82 H82        33.1065   -0.1364   -3.0576 H         1 UNK         0.1406 
     83 H83        29.6461   -1.0172   -0.6898 H         1 UNK         0.1631 
     84 H84        32.3143    1.4797   -1.4136 H         1 UNK         0.0717 
     85 H85        31.0506    1.0427   -0.2964 H         1 UNK         0.0717 
     86 H86        31.3470    3.3026   -3.9375 H         1 UNK         0.0934 
     87 H87        31.8671    1.6556   -3.9207 H         1 UNK         0.0934 
     88 H88        30.7496    1.9065   -5.9815 H         1 UNK         0.0739 
     89 H89        29.4343    0.2243   -4.0839 H         1 UNK         0.3093 
     90 H90        27.3477   -1.4611   -6.4241 H         1 UNK         0.0818 
     91 H91        29.6016   -2.5413   -6.7246 H         1 UNK         0.0819 
     92 H92        29.8656   -2.4579   -4.9922 H         1 UNK         0.0819 
     93 H93        28.5690   -3.4594   -5.6418 H         1 UNK         0.0819 
     94 H94        27.7667   -2.0311   -3.7151 H         1 UNK         0.3041 
     95 H95        26.1467   -1.6381   -2.2266 H         1 UNK         0.0784 
     96 H96        27.7617    0.1486   -1.6192 H         1 UNK         0.0793 
     97 H97        26.5314    1.3736   -1.8821 H         1 UNK         0.0793 
     98 H98        26.3457    0.1910   -0.5863 H         1 UNK         0.0793 
     99 H99        24.3011    0.4867   -2.0016 H         1 UNK         0.3024 
    100 H100       22.6171   -2.7452   -3.8016 H         1 UNK         0.1171 
    101 H101       23.4897   -2.8960   -6.0127 H         1 UNK         0.0786 
    102 H102       23.0690   -1.2131   -5.7630 H         1 UNK         0.0786 
    103 H103       24.7519   -1.7128   -5.7133 H         1 UNK         0.0786 
    104 H104       25.2220   -3.6026   -4.1850 H         1 UNK         0.2977 
    105 H105       27.6180    2.1505   -4.3500 H         1 UNK         0.3127 
    106 H106       27.1845    4.9440   -5.1110 H         1 UNK         0.0770 
    107 H107       25.2532    2.8592   -3.9536 H         1 UNK         0.0814 
    108 H108       24.9417    4.5783   -4.1283 H         1 UNK         0.0814 
    109 H109       26.1848    4.0271   -3.0170 H         1 UNK         0.0814 
    110 H110       26.1795    1.6951   -6.1993 H         1 UNK         0.2983 
    111 H111       24.5477    2.5821   -8.3974 H         1 UNK         0.0947 
    112 H112       25.9041   -0.1167   -7.8527 H         1 UNK         0.0806 
    113 H113       24.6181    0.1630   -9.0182 H         1 UNK         0.0806 
    114 H114       24.2972    0.3575   -7.3023 H         1 UNK         0.0806 
    115 H115       27.9532    2.2929   -8.0272 H         1 UNK         0.3000 
    116 H116       29.7565    2.5336   -9.2663 H         1 UNK         0.0850 
    117 H117       28.6800    4.5542  -10.2981 H         1 UNK         0.0810 
    118 H118       28.0234    3.5422  -11.5847 H         1 UNK         0.0810 
    119 H119       29.7601    3.7328  -11.4128 H         1 UNK         0.0810 
    120 H120       28.6108    0.0732   -8.9631 H         1 UNK         0.3040 
    121 H121       28.7346   -1.4356  -11.5202 H         1 UNK         0.0766 
    122 H122       27.9522   -3.3158  -10.0743 H         1 UNK         0.0812 
    123 H123       26.8730   -1.9336   -9.9561 H         1 UNK         0.0812 
    124 H124       28.0135   -2.2767   -8.6586 H         1 UNK         0.0812 
    125 H125       30.9736   -0.7978  -11.7722 H         1 UNK         0.3205 
    126 H126       33.1250   -1.1983  -11.9603 H         1 UNK         0.0754 
    127 H127       34.1724   -3.3166  -11.2564 H         1 UNK         0.0769 
    128 H128       32.6160   -3.6352  -12.0054 H         1 UNK         0.0769 
    129 H129       32.7904   -3.7197  -10.2527 H         1 UNK         0.0769 
    130 H130       32.0313   -1.5194   -8.5991 H         1 UNK         0.2981 
    131 H131       34.4408   -0.5540   -7.3687 H         1 UNK         0.0541 
    132 H132       32.6422    2.8499   -8.5735 H         1 UNK         0.3459 
    133 H133       32.2469    1.3009   -9.2783 H         1 UNK         0.3459 
    134 H134       32.9835   -0.2619   -5.3412 H         1 UNK         0.0612 
    135 H135       31.5820   -0.6455   -6.3016 H         1 UNK         0.0612 
    136 H136       34.3533   -1.9655   -4.0774 H         1 UNK         0.0624 
    137 H137       33.8016   -3.6110   -3.9035 H         1 UNK         0.0624 
@<TRIPOS>BOND
     1    1    2 1    
     2    1   72 1    
     3    1   73 1    
     4    1   74 1    
     5    2    3 2    
     6    2    4 am   BACKBONE|DICT|INTERRES
     7    4    5 1    
     8    4   75 1    
     9    5    6 1    
    10    5   35 1    
    11    5   76 1    
    12    6    7 1    
    13    6   77 1    
    14    6   78 1    
    15    7    8 1    
    16    8    9 1    
    17    8   79 1    
    18    8   80 1    
    19    9   10 ar   
    20    9   14 ar   
    21   10   11 ar   
    22   10   81 1    
    23   11   12 ar   
    24   11   71 1    
    25   12   13 ar   
    26   12   82 1    
    27   13   14 ar   
    28   13   15 1    
    29   14   83 1    
    30   15   16 1    
    31   15   84 1    
    32   15   85 1    
    33   16   17 1    
    34   17   18 1    
    35   17   86 1    
    36   17   87 1    
    37   18   19 1    
    38   18   37 1    
    39   18   88 1    
    40   19   20 am   BACKBONE|DICT|INTERRES
    41   19   89 1    
    42   20   21 2    
    43   20   22 1    
    44   22   23 1    
    45   22   24 1    
    46   22   90 1    
    47   23   91 1    
    48   23   92 1    
    49   23   93 1    
    50   24   25 am   BACKBONE|DICT|INTERRES
    51   24   94 1    
    52   25   26 2    
    53   25   27 1    
    54   27   28 1    
    55   27   29 1    
    56   27   95 1    
    57   28   96 1    
    58   28   97 1    
    59   28   98 1    
    60   29   30 am   BACKBONE|DICT|INTERRES
    61   29   99 1    
    62   30   31 2    
    63   30   32 1    
    64   32   33 1    
    65   32   34 1    
    66   32  100 1    
    67   33  101 1    
    68   33  102 1    
    69   33  103 1    
    70   34   35 am   BACKBONE|DICT|INTERRES
    71   34  104 1    
    72   35   36 2    
    73   37   38 2    
    74   37   39 am   BACKBONE|DICT|INTERRES
    75   39   40 1    
    76   39  105 1    
    77   40   41 1    
    78   40   42 1    
    79   40  106 1    
    80   41  107 1    
    81   41  108 1    
    82   41  109 1    
    83   42   43 2    
    84   42   44 am   BACKBONE|DICT|INTERRES
    85   44   45 1    
    86   44  110 1    
    87   45   46 1    
    88   45   47 1    
    89   45  111 1    
    90   46  112 1    
    91   46  113 1    
    92   46  114 1    
    93   47   48 2    
    94   47   49 am   BACKBONE|DICT|INTERRES
    95   49   50 1    
    96   49  115 1    
    97   50   51 1    
    98   50   52 1    
    99   50  116 1    
   100   51  117 1    
   101   51  118 1    
   102   51  119 1    
   103   52   53 2    
   104   52   54 am   BACKBONE|DICT|INTERRES
   105   54   55 1    
   106   54  120 1    
   107   55   56 1    
   108   55   57 1    
   109   55  121 1    
   110   56  122 1    
   111   56  123 1    
   112   56  124 1    
   113   57   58 2    
   114   57   59 am   BACKBONE|DICT|INTERRES
   115   59   60 1    
   116   59  125 1    
   117   60   61 1    
   118   60   62 1    
   119   60  126 1    
   120   61  127 1    
   121   61  128 1    
   122   61  129 1    
   123   62   63 2    
   124   62   64 am   BACKBONE|DICT|INTERRES
   125   64   65 1    
   126   64  130 1    
   127   65   66 1    
   128   65   69 1    
   129   65  131 1    
   130   66   67 am   BACKBONE|DICT|INTERRES
   131   66   68 2    
   132   67  132 1    
   133   67  133 1    
   134   69   70 1    
   135   69  134 1    
   136   69  135 1    
   137   70   71 1    
   138   71  136 1    
   139   71  137 1    
@<TRIPOS>SUBSTRUCTURE
     1 UNK         1 GROUP             0       ****    0 ROOT    
