@<TRIPOS>MOLECULE
3R137
137   139    1
SMALL
USER_CHARGES


@<TRIPOS>ATOM
      1 CA         26.2977   -1.9170    3.3647 C.3       0 UNK        -0.2020 
      2 C          26.5758   -1.9383    1.8691 C.2       0 UNK         0.4855 
      3 O          25.9750   -1.1637    1.1239 O.2       0 UNK        -0.5197 
      4 N          27.4876   -2.8125    1.4264 N.am      1 UNK        -0.4892 
      5 CA         27.8554   -3.0039    0.0194 C.3       1 UNK         0.0835 
      6 C6         29.1410   -3.8544   -0.1265 C.3       12 UNK        -0.0855 
      7 S7         30.5888   -3.0296    0.6180 S.3       12 UNK        -0.2931 
      8 C8         31.8587   -3.2410   -0.6731 C.3       12 UNK         0.0378 
      9 C9         31.5376   -2.4858   -1.9574 C.ar      12 UNK        -0.0802 
     10 C10        31.4104   -3.1771   -3.1671 C.ar      12 UNK        -0.0944 
     11 C11        31.1677   -2.4871   -4.3591 C.ar      12 UNK        -0.0787 
     12 C12        31.0264   -1.0978   -4.3321 C.ar      12 UNK        -0.0862 
     13 C13        31.1391   -0.3964   -3.1278 C.ar      12 UNK        -0.0733 
     14 C14        31.4050   -1.0936   -1.9457 C.ar      12 UNK        -0.0832 
     15 C15        30.9727    1.1157   -3.1072 C.3       12 UNK         0.0240 
     16 S16        29.3731    1.6370   -2.4009 S.3       12 UNK        -0.2522 
     17 C17        28.1588    0.6240   -3.3145 C.3       12 UNK        -0.0967 
     18 CA         28.0437    0.9701   -4.8208 C.3       5 UNK         0.0660 
     19 N          27.4638   -0.1408   -5.5782 N.am      5 UNK        -0.4015 
     20 C          27.5254   -0.2703   -6.9118 C.2       4 UNK         0.4946 
     21 O          28.1239    0.5178   -7.6407 O.2       4 UNK        -0.5353 
     22 CA         26.7629   -1.4460   -7.5542 C.3       4 UNK         0.0277 
     23 CB         27.6826   -2.6691   -7.6918 C.3       4 UNK        -0.1981 
     24 N          25.5563   -1.8372   -6.8225 N.am      4 UNK        -0.4209 
     25 C          24.5168   -1.0350   -6.5508 C.2       3 UNK         0.4942 
     26 O          24.4079    0.1106   -6.9866 O.2       3 UNK        -0.5208 
     27 CA         23.4597   -1.5703   -5.5651 C.3       3 UNK         0.0250 
     28 CB         22.2636   -2.1561   -6.3315 C.3       3 UNK        -0.1990 
     29 N          23.9633   -2.5669   -4.6056 N.am      3 UNK        -0.4232 
     30 C          24.9969   -2.3868   -3.7698 C.2       2 UNK         0.4993 
     31 O          25.6687   -1.3512   -3.7278 O.2       2 UNK        -0.5286 
     32 CA         25.3884   -3.5752   -2.8837 C.3       2 UNK         0.0209 
     33 CB         25.9177   -4.7523   -3.7267 C.3       2 UNK        -0.1931 
     34 N          26.4308   -3.1301   -1.9642 N.am      2 UNK        -0.4546 
     35 C          26.6957   -3.6507   -0.7641 C.2       1 UNK         0.5154 
     36 O          26.0923   -4.6147   -0.2847 O.2       1 UNK        -0.5181 
     37 C          27.2639    2.2778   -5.0564 C.2       5 UNK         0.5014 
     38 O          27.8824    3.3247   -5.2508 O.2       5 UNK        -0.5248 
     39 N          25.9251    2.1893   -5.0767 N.am      6 UNK        -0.4434 
     40 CA         25.0271    3.3089   -5.3731 C.3       6 UNK         0.0363 
     41 CB         23.5845    2.9307   -4.9996 C.3       6 UNK        -0.1936 
     42 C          25.1157    3.7549   -6.8425 C.2       6 UNK         0.5081 
     43 O          25.0948    4.9552   -7.1151 O.2       6 UNK        -0.5248 
     44 N          25.2397    2.7837   -7.7574 N.am      7 UNK        -0.4718 
     45 CA         25.4451    3.0079   -9.1909 C.3       7 UNK         0.0273 
     46 CB         25.1548    1.6991   -9.9434 C.3       7 UNK        -0.1935 
     47 C          26.8565    3.5158   -9.5432 C.2       7 UNK         0.5018 
     48 O          27.0274    4.0819  -10.6235 O.2       7 UNK        -0.5186 
     49 N          27.8299    3.2824   -8.6483 N.am      8 UNK        -0.4240 
     50 CA         29.2735    3.4979   -8.8087 C.3       8 UNK         0.0235 
     51 CB         29.6044    5.0009   -8.9259 C.3       8 UNK        -0.2000 
     52 C          29.8390    2.6505   -9.9654 C.2       8 UNK         0.4941 
     53 O          30.4983    3.1793  -10.8634 O.2       8 UNK        -0.5273 
     54 N          29.5268    1.3508   -9.9316 N.am      9 UNK        -0.4262 
     55 CA         29.8240    0.3680  -10.9691 C.3       9 UNK         0.0264 
     56 CB         28.4940   -0.0443  -11.6263 C.3       9 UNK        -0.1955 
     57 C          30.5269   -0.8548  -10.3643 C.2       9 UNK         0.5031 
     58 O          30.5678   -1.0071   -9.1408 O.2       9 UNK        -0.5390 
     59 N          31.0483   -1.7170  -11.2491 N.am      10 UNK        -0.4204 
     60 CA         31.6829   -3.0224  -11.0080 C.3       10 UNK         0.0237 
     61 CB         30.6947   -4.0162  -10.3626 C.3       10 UNK        -0.1985 
     62 C          33.0032   -2.9658  -10.2201 C.2       10 UNK         0.4970 
     63 O          34.0242   -3.4398  -10.7197 O.2       10 UNK        -0.4914 
     64 N          32.9552   -2.4042   -9.0103 N.am      11 UNK        -0.4285 
     65 CA         34.0827   -2.2904   -8.0748 C.3       11 UNK         0.1007 
     66 C          35.0052   -1.0650   -8.3370 C.2       11 UNK         0.5703 
     67 N          34.6763   -0.1646   -9.2563 N.am      11 UNK        -0.7361 
     68 O          36.0502   -0.9362   -7.7033 O.2       11 UNK        -0.4986 
     69 C69        33.5984   -2.3312   -6.6025 C.3       12 UNK        -0.0947 
     70 S70        32.6999   -3.8719   -6.2046 S.3       12 UNK        -0.2240 
     71 C71        31.0745   -3.2413   -5.6783 C.3       12 UNK         0.0194 
     72 H72        26.9065   -2.6427    3.9037 H         1 UNK         0.0906 
     73 H73        26.5094   -0.9287    3.7717 H         1 UNK         0.0906 
     74 H74        25.2495   -2.1465    3.5543 H         1 UNK         0.0906 
     75 H75        27.9475   -3.4289    2.0811 H         1 UNK         0.3140 
     76 H76        28.0494   -2.0170   -0.4084 H         1 UNK         0.1085 
     77 H77        29.3450   -4.0538   -1.1802 H         1 UNK         0.0836 
     78 H78        29.0163   -4.8311    0.3454 H         1 UNK         0.0836 
     79 H79        31.9899   -4.3067   -0.8681 H         1 UNK         0.0731 
     80 H80        32.8137   -2.8828   -0.2862 H         1 UNK         0.0731 
     81 H81        31.5250   -4.2523   -3.1903 H         1 UNK         0.1312 
     82 H82        30.8322   -0.5628   -5.2518 H         1 UNK         0.1406 
     83 H83        31.4993   -0.5532   -1.0132 H         1 UNK         0.1631 
     84 H84        31.0765    1.5304   -4.1108 H         1 UNK         0.0717 
     85 H85        31.7762    1.5592   -2.5174 H         1 UNK         0.0717 
     86 H86        28.4360   -0.4231   -3.1872 H         1 UNK         0.0934 
     87 H87        27.1911    0.7194   -2.8177 H         1 UNK         0.0934 
     88 H88        29.0477    1.1234   -5.2190 H         1 UNK         0.0739 
     89 H89        26.8931   -0.7885   -5.0413 H         1 UNK         0.3093 
     90 H90        26.4564   -1.1324   -8.5535 H         1 UNK         0.0818 
     91 H91        28.5798   -2.4182   -8.2565 H         1 UNK         0.0819 
     92 H92        28.0047   -3.0460   -6.7203 H         1 UNK         0.0819 
     93 H93        27.1882   -3.4824   -8.2230 H         1 UNK         0.0819 
     94 H94        25.5476   -2.7663   -6.4291 H         1 UNK         0.3041 
     95 H95        23.1069   -0.7151   -4.9848 H         1 UNK         0.0784 
     96 H96        21.8561   -1.4278   -7.0345 H         1 UNK         0.0793 
     97 H97        22.5445   -3.0405   -6.9048 H         1 UNK         0.0793 
     98 H98        21.4557   -2.4354   -5.6549 H         1 UNK         0.0793 
     99 H99        23.4727   -3.4499   -4.5827 H         1 UNK         0.3024 
    100 H100       24.5071   -3.8839   -2.3165 H         1 UNK         0.1171 
    101 H101       26.2140   -5.5897   -3.0946 H         1 UNK         0.0786 
    102 H102       25.1577   -5.1270   -4.4131 H         1 UNK         0.0786 
    103 H103       26.7853   -4.4635   -4.3218 H         1 UNK         0.0786 
    104 H104       26.9028   -2.2876   -2.2686 H         1 UNK         0.2977 
    105 H105       25.4963    1.2842   -4.9436 H         1 UNK         0.3127 
    106 H106       25.3275    4.1552   -4.7512 H         1 UNK         0.0770 
    107 H107       23.2191    2.0874   -5.5863 H         1 UNK         0.0814 
    108 H108       22.9067    3.7667   -5.1772 H         1 UNK         0.0814 
    109 H109       23.5030    2.6673   -3.9450 H         1 UNK         0.0814 
    110 H110       25.1553    1.8169   -7.4516 H         1 UNK         0.2983 
    111 H111       24.7311    3.7640   -9.5248 H         1 UNK         0.0947 
    112 H112       25.8562    0.9132   -9.6628 H         1 UNK         0.0806 
    113 H113       25.2392    1.8406  -11.0218 H         1 UNK         0.0806 
    114 H114       24.1466    1.3374   -9.7403 H         1 UNK         0.0806 
    115 H115       27.5691    2.7615   -7.8210 H         1 UNK         0.3000 
    116 H116       29.7411    3.1259   -7.8955 H         1 UNK         0.0850 
    117 H117       29.2025    5.5604   -8.0811 H         1 UNK         0.0810 
    118 H118       29.2019    5.4378   -9.8402 H         1 UNK         0.0810 
    119 H119       30.6831    5.1609   -8.9382 H         1 UNK         0.0810 
    120 H120       29.0519    0.9827   -9.1053 H         1 UNK         0.3040 
    121 H121       30.4839    0.7983  -11.7253 H         1 UNK         0.0766 
    122 H122       28.6520   -0.7475  -12.4446 H         1 UNK         0.0812 
    123 H123       27.9748    0.8203  -12.0411 H         1 UNK         0.0812 
    124 H124       27.8238   -0.5210  -10.9094 H         1 UNK         0.0812 
    125 H125       30.9855   -1.4625  -12.2257 H         1 UNK         0.3205 
    126 H126       31.9296   -3.4129  -11.9967 H         1 UNK         0.0754 
    127 H127       31.1407   -5.0082  -10.2791 H         1 UNK         0.0769 
    128 H128       29.7882   -4.1176  -10.9593 H         1 UNK         0.0769 
    129 H129       30.4009   -3.7109   -9.3580 H         1 UNK         0.0769 
    130 H130       32.0767   -1.9746   -8.7285 H         1 UNK         0.2981 
    131 H131       34.7218   -3.1633   -8.2213 H         1 UNK         0.0541 
    132 H132       35.2870    0.6200   -9.4203 H         1 UNK         0.3459 
    133 H133       33.8239   -0.2635   -9.7826 H         1 UNK         0.3459 
    134 H134       34.4439   -2.2650   -5.9155 H         1 UNK         0.0612 
    135 H135       32.9688   -1.4655   -6.3937 H         1 UNK         0.0612 
    136 H136       30.3883   -4.0817   -5.5654 H         1 UNK         0.0624 
    137 H137       30.6613   -2.6092   -6.4665 H         1 UNK         0.0624 
@<TRIPOS>BOND
     1    1    2 1    
     2    1   72 1    
     3    1   73 1    
     4    1   74 1    
     5    2    3 2    
     6    2    4 am   BACKBONE|DICT|INTERRES
     7    4    5 1    
     8    4   75 1    
     9    5    6 1    
    10    5   35 1    
    11    5   76 1    
    12    6    7 1    
    13    6   77 1    
    14    6   78 1    
    15    7    8 1    
    16    8    9 1    
    17    8   79 1    
    18    8   80 1    
    19    9   10 ar   
    20    9   14 ar   
    21   10   11 ar   
    22   10   81 1    
    23   11   12 ar   
    24   11   71 1    
    25   12   13 ar   
    26   12   82 1    
    27   13   14 ar   
    28   13   15 1    
    29   14   83 1    
    30   15   16 1    
    31   15   84 1    
    32   15   85 1    
    33   16   17 1    
    34   17   18 1    
    35   17   86 1    
    36   17   87 1    
    37   18   19 1    
    38   18   37 1    
    39   18   88 1    
    40   19   20 am   BACKBONE|DICT|INTERRES
    41   19   89 1    
    42   20   21 2    
    43   20   22 1    
    44   22   23 1    
    45   22   24 1    
    46   22   90 1    
    47   23   91 1    
    48   23   92 1    
    49   23   93 1    
    50   24   25 am   BACKBONE|DICT|INTERRES
    51   24   94 1    
    52   25   26 2    
    53   25   27 1    
    54   27   28 1    
    55   27   29 1    
    56   27   95 1    
    57   28   96 1    
    58   28   97 1    
    59   28   98 1    
    60   29   30 am   BACKBONE|DICT|INTERRES
    61   29   99 1    
    62   30   31 2    
    63   30   32 1    
    64   32   33 1    
    65   32   34 1    
    66   32  100 1    
    67   33  101 1    
    68   33  102 1    
    69   33  103 1    
    70   34   35 am   BACKBONE|DICT|INTERRES
    71   34  104 1    
    72   35   36 2    
    73   37   38 2    
    74   37   39 am   BACKBONE|DICT|INTERRES
    75   39   40 1    
    76   39  105 1    
    77   40   41 1    
    78   40   42 1    
    79   40  106 1    
    80   41  107 1    
    81   41  108 1    
    82   41  109 1    
    83   42   43 2    
    84   42   44 am   BACKBONE|DICT|INTERRES
    85   44   45 1    
    86   44  110 1    
    87   45   46 1    
    88   45   47 1    
    89   45  111 1    
    90   46  112 1    
    91   46  113 1    
    92   46  114 1    
    93   47   48 2    
    94   47   49 am   BACKBONE|DICT|INTERRES
    95   49   50 1    
    96   49  115 1    
    97   50   51 1    
    98   50   52 1    
    99   50  116 1    
   100   51  117 1    
   101   51  118 1    
   102   51  119 1    
   103   52   53 2    
   104   52   54 am   BACKBONE|DICT|INTERRES
   105   54   55 1    
   106   54  120 1    
   107   55   56 1    
   108   55   57 1    
   109   55  121 1    
   110   56  122 1    
   111   56  123 1    
   112   56  124 1    
   113   57   58 2    
   114   57   59 am   BACKBONE|DICT|INTERRES
   115   59   60 1    
   116   59  125 1    
   117   60   61 1    
   118   60   62 1    
   119   60  126 1    
   120   61  127 1    
   121   61  128 1    
   122   61  129 1    
   123   62   63 2    
   124   62   64 am   BACKBONE|DICT|INTERRES
   125   64   65 1    
   126   64  130 1    
   127   65   66 1    
   128   65   69 1    
   129   65  131 1    
   130   66   67 am   BACKBONE|DICT|INTERRES
   131   66   68 2    
   132   67  132 1    
   133   67  133 1    
   134   69   70 1    
   135   69  134 1    
   136   69  135 1    
   137   70   71 1    
   138   71  136 1    
   139   71  137 1    
@<TRIPOS>SUBSTRUCTURE
     1 UNK         1 GROUP             0       ****    0 ROOT    
