@<TRIPOS>MOLECULE
3R137
137   139    1
SMALL
USER_CHARGES


@<TRIPOS>ATOM
      1 CA         28.6908    2.9937   -1.4845 C.3       0 UNK        -0.2020 
      2 C          28.3910    1.8554   -2.4460 C.2       0 UNK         0.4855 
      3 O          28.5813    2.0060   -3.6526 O.2       0 UNK        -0.5197 
      4 N          27.9084    0.7186   -1.9310 N.am      1 UNK        -0.4892 
      5 CA         27.6207   -0.5171   -2.6753 C.3       1 UNK         0.0835 
      6 C6         27.6316   -1.7584   -1.7410 C.3       12 UNK        -0.0855 
      7 S7         29.1539   -2.0150   -0.7592 S.3       12 UNK        -0.2931 
      8 C8         30.5168   -1.7854   -1.9599 C.3       12 UNK         0.0378 
      9 C9         30.5748   -2.7674   -3.1343 C.ar      12 UNK        -0.0802 
     10 C10        31.4183   -2.4602   -4.2081 C.ar      12 UNK        -0.0944 
     11 C11        31.5237   -3.3173   -5.3074 C.ar      12 UNK        -0.0787 
     12 C12        30.7635   -4.4892   -5.3404 C.ar      12 UNK        -0.0862 
     13 C13        29.9190   -4.8166   -4.2768 C.ar      12 UNK        -0.0733 
     14 C14        29.8436   -3.9637   -3.1705 C.ar      12 UNK        -0.0832 
     15 C15        29.0989   -6.0998   -4.3208 C.3       12 UNK         0.0240 
     16 S16        27.6829   -5.9756   -5.4620 S.3       12 UNK        -0.2522 
     17 C17        26.6481   -4.7417   -4.6062 C.3       12 UNK        -0.0967 
     18 CA         25.3927   -4.3096   -5.4140 C.3       5 UNK         0.0660 
     19 N          24.3793   -3.7572   -4.5276 N.am      5 UNK        -0.4015 
     20 C          23.3927   -4.3998   -3.9018 C.2       4 UNK         0.4946 
     21 O          23.1977   -5.6137   -3.9764 O.2       4 UNK        -0.5353 
     22 CA         22.4589   -3.5210   -3.0492 C.3       4 UNK         0.0277 
     23 CB         23.0511   -3.3048   -1.6469 C.3       4 UNK        -0.1981 
     24 N          22.2042   -2.2193   -3.6764 N.am      4 UNK        -0.4209 
     25 C          21.4286   -2.0373   -4.7534 C.2       3 UNK         0.4942 
     26 O          20.7536   -2.9328   -5.2629 O.2       3 UNK        -0.5208 
     27 CA         21.4111   -0.6393   -5.3980 C.3       3 UNK         0.0250 
     28 CB         20.3978    0.2938   -4.7051 C.3       3 UNK        -0.1990 
     29 N          22.7413   -0.0256   -5.5298 N.am      3 UNK        -0.4232 
     30 C          23.5389    0.4674   -4.5724 C.2       2 UNK         0.4993 
     31 O          23.2308    0.5321   -3.3797 O.2       2 UNK        -0.5286 
     32 CA         24.9179    0.9695   -5.0418 C.3       2 UNK         0.0209 
     33 CB         24.8600    2.4784   -5.3314 C.3       2 UNK        -0.1931 
     34 N          26.0157    0.7141   -4.1020 N.am      2 UNK        -0.4546 
     35 C          26.3163   -0.4498   -3.5091 C.2       1 UNK         0.5154 
     36 O          25.6128   -1.4547   -3.6059 O.2       1 UNK        -0.5181 
     37 C          25.6834   -3.2387   -6.4901 C.2       5 UNK         0.5014 
     38 O          24.8686   -2.3342   -6.7063 O.2       5 UNK        -0.5248 
     39 N          26.8450   -3.3447   -7.1438 N.am      6 UNK        -0.4434 
     40 CA         27.4056   -2.3083   -8.0096 C.3       6 UNK         0.0363 
     41 CB         28.5536   -2.9154   -8.8306 C.3       6 UNK        -0.1936 
     42 C          27.8933   -1.1064   -7.1795 C.2       6 UNK         0.5081 
     43 O          28.2862   -1.2763   -6.0240 O.2       6 UNK        -0.5248 
     44 N          27.8540    0.0882   -7.7818 N.am      7 UNK        -0.4718 
     45 CA         28.2956    1.3333   -7.1536 C.3       7 UNK         0.0273 
     46 CB         27.7804    2.5281   -7.9727 C.3       7 UNK        -0.1935 
     47 C          29.8250    1.3809   -7.0365 C.2       7 UNK         0.5018 
     48 O          30.5090    1.2712   -8.0577 O.2       7 UNK        -0.5186 
     49 N          30.3330    1.6042   -5.8167 N.am      8 UNK        -0.4240 
     50 CA         31.7639    1.6661   -5.4911 C.3       8 UNK         0.0235 
     51 CB         31.9358    1.8559   -3.9763 C.3       8 UNK        -0.2000 
     52 C          32.5385    2.7528   -6.2561 C.2       8 UNK         0.4941 
     53 O          33.7329    2.5847   -6.4968 O.2       8 UNK        -0.5273 
     54 N          31.8420    3.8209   -6.6686 N.am      9 UNK        -0.4262 
     55 CA         32.3594    4.8647   -7.5555 C.3       9 UNK         0.0264 
     56 CB         31.3377    6.0112   -7.6307 C.3       9 UNK        -0.1955 
     57 C          32.7062    4.3599   -8.9710 C.2       9 UNK         0.5031 
     58 O          33.5355    4.9852   -9.6339 O.2       9 UNK        -0.5390 
     59 N          32.0778    3.2592   -9.4094 N.am      10 UNK        -0.4204 
     60 CA         32.3367    2.6085  -10.6905 C.3       10 UNK         0.0237 
     61 CB         31.0058    2.1846  -11.3375 C.3       10 UNK        -0.1985 
     62 C          33.2721    1.4051  -10.5108 C.2       10 UNK         0.4970 
     63 O          34.2965    1.3421  -11.1918 O.2       10 UNK        -0.4914 
     64 N          32.9043    0.4677   -9.6250 N.am      11 UNK        -0.4285 
     65 CA         33.6309   -0.7996   -9.4290 C.3       11 UNK         0.1007 
     66 C          34.8629   -0.7366   -8.4819 C.2       11 UNK         0.5703 
     67 N          35.1027    0.3436   -7.7511 N.am      11 UNK        -0.7361 
     68 O          35.6375   -1.6890   -8.4263 O.2       11 UNK        -0.4986 
     69 C69        32.6774   -1.9756   -9.0944 C.3       12 UNK        -0.0947 
     70 S70        31.7108   -1.7553   -7.5653 S.3       12 UNK        -0.2240 
     71 C71        32.4602   -2.9828   -6.4583 C.3       12 UNK         0.0194 
     72 H72        28.1007    3.8712   -1.7474 H         1 UNK         0.0906 
     73 H73        28.4637    2.7273   -0.4524 H         1 UNK         0.0906 
     74 H74        29.7452    3.2625   -1.5418 H         1 UNK         0.0906 
     75 H75        27.7540    0.6581   -0.9343 H         1 UNK         0.3140 
     76 H76        28.4101   -0.6542   -3.4170 H         1 UNK         0.1085 
     77 H77        26.7972   -1.7006   -1.0395 H         1 UNK         0.0836 
     78 H78        27.4616   -2.6679   -2.3170 H         1 UNK         0.0836 
     79 H79        30.4762   -0.7640   -2.3368 H         1 UNK         0.0731 
     80 H80        31.4568   -1.8637   -1.4123 H         1 UNK         0.0731 
     81 H81        31.9979   -1.5472   -4.1925 H         1 UNK         0.1312 
     82 H82        30.8281   -5.1500   -6.1941 H         1 UNK         0.1406 
     83 H83        29.2063   -4.2390   -2.3429 H         1 UNK         0.1631 
     84 H84        28.7379   -6.3662   -3.3261 H         1 UNK         0.0717 
     85 H85        29.7377   -6.9237   -4.6424 H         1 UNK         0.0717 
     86 H86        26.3464   -5.1899   -3.6579 H         1 UNK         0.0934 
     87 H87        27.2499   -3.8696   -4.3444 H         1 UNK         0.0934 
     88 H88        24.9681   -5.1752   -5.9265 H         1 UNK         0.0739 
     89 H89        24.4895   -2.7573   -4.3706 H         1 UNK         0.3093 
     90 H90        21.5078   -4.0472   -2.9428 H         1 UNK         0.0818 
     91 H91        22.3685   -2.7403   -1.0114 H         1 UNK         0.0819 
     92 H92        23.2405   -4.2585   -1.1524 H         1 UNK         0.0819 
     93 H93        23.9975   -2.7634   -1.6858 H         1 UNK         0.0819 
     94 H94        22.7159   -1.4154   -3.3234 H         1 UNK         0.3041 
     95 H95        21.0634   -0.7807   -6.4228 H         1 UNK         0.0784 
     96 H96        19.3932   -0.1292   -4.7467 H         1 UNK         0.0793 
     97 H97        20.6346    0.4516   -3.6527 H         1 UNK         0.0793 
     98 H98        20.3593    1.2687   -5.1909 H         1 UNK         0.0793 
     99 H99        23.1226   -0.0729   -6.4655 H         1 UNK         0.3024 
    100 H100       25.1778    0.4438   -5.9635 H         1 UNK         0.1171 
    101 H101       25.8112    2.8533   -5.7079 H         1 UNK         0.0786 
    102 H102       24.6103    3.0469   -4.4344 H         1 UNK         0.0786 
    103 H103       24.1025    2.7056   -6.0828 H         1 UNK         0.0786 
    104 H104       26.6796    1.4668   -3.9620 H         1 UNK         0.2977 
    105 H105       27.4716   -4.0884   -6.8645 H         1 UNK         0.3127 
    106 H106       26.6265   -1.9670   -8.6946 H         1 UNK         0.0770 
    107 H107       29.3156   -3.3557   -8.1866 H         1 UNK         0.0814 
    108 H108       29.0430   -2.1585   -9.4454 H         1 UNK         0.0814 
    109 H109       28.1922   -3.6952   -9.5008 H         1 UNK         0.0814 
    110 H110       27.5663    0.1448   -8.7478 H         1 UNK         0.2983 
    111 H111       27.8597    1.3856   -6.1550 H         1 UNK         0.0947 
    112 H112       28.0562    3.4720   -7.5006 H         1 UNK         0.0806 
    113 H113       26.6937    2.5144   -8.0572 H         1 UNK         0.0806 
    114 H114       28.1941    2.5357   -8.9823 H         1 UNK         0.0806 
    115 H115       29.6886    1.7110   -5.0333 H         1 UNK         0.3000 
    116 H116       32.2005    0.7046   -5.7688 H         1 UNK         0.0850 
    117 H117       32.9912    1.8725   -3.7008 H         1 UNK         0.0810 
    118 H118       31.4698    1.0439   -3.4207 H         1 UNK         0.0810 
    119 H119       31.4925    2.7922   -3.6352 H         1 UNK         0.0810 
    120 H120       30.8681    3.8805   -6.4099 H         1 UNK         0.3040 
    121 H121       33.2796    5.2521   -7.1130 H         1 UNK         0.0766 
    122 H122       31.7065    6.8210   -8.2620 H         1 UNK         0.0812 
    123 H123       31.1421    6.4353   -6.6456 H         1 UNK         0.0812 
    124 H124       30.3872    5.6789   -8.0502 H         1 UNK         0.0812 
    125 H125       31.4454    2.7663   -8.7843 H         1 UNK         0.3205 
    126 H126       32.8229    3.3084  -11.3736 H         1 UNK         0.0754 
    127 H127       31.1779    1.7046  -12.3018 H         1 UNK         0.0769 
    128 H128       30.3632    3.0469  -11.5156 H         1 UNK         0.0769 
    129 H129       30.4505    1.4796  -10.7181 H         1 UNK         0.0769 
    130 H130       32.0580    0.5922   -9.0764 H         1 UNK         0.2981 
    131 H131       34.0632   -1.0625  -10.3966 H         1 UNK         0.0541 
    132 H132       35.9160    0.3545   -7.1577 H         1 UNK         0.3459 
    133 H133       34.4635    1.1281   -7.7236 H         1 UNK         0.3459 
    134 H134       33.2284   -2.9166   -9.0567 H         1 UNK         0.0612 
    135 H135       31.9618   -2.0968   -9.9089 H         1 UNK         0.0612 
    136 H136       33.4055   -2.5944   -6.0763 H         1 UNK         0.0624 
    137 H137       32.6984   -3.8886   -7.0176 H         1 UNK         0.0624 
@<TRIPOS>BOND
     1    1    2 1    
     2    1   72 1    
     3    1   73 1    
     4    1   74 1    
     5    2    3 2    
     6    2    4 am   BACKBONE|DICT|INTERRES
     7    4    5 1    
     8    4   75 1    
     9    5    6 1    
    10    5   35 1    
    11    5   76 1    
    12    6    7 1    
    13    6   77 1    
    14    6   78 1    
    15    7    8 1    
    16    8    9 1    
    17    8   79 1    
    18    8   80 1    
    19    9   10 ar   
    20    9   14 ar   
    21   10   11 ar   
    22   10   81 1    
    23   11   12 ar   
    24   11   71 1    
    25   12   13 ar   
    26   12   82 1    
    27   13   14 ar   
    28   13   15 1    
    29   14   83 1    
    30   15   16 1    
    31   15   84 1    
    32   15   85 1    
    33   16   17 1    
    34   17   18 1    
    35   17   86 1    
    36   17   87 1    
    37   18   19 1    
    38   18   37 1    
    39   18   88 1    
    40   19   20 am   BACKBONE|DICT|INTERRES
    41   19   89 1    
    42   20   21 2    
    43   20   22 1    
    44   22   23 1    
    45   22   24 1    
    46   22   90 1    
    47   23   91 1    
    48   23   92 1    
    49   23   93 1    
    50   24   25 am   BACKBONE|DICT|INTERRES
    51   24   94 1    
    52   25   26 2    
    53   25   27 1    
    54   27   28 1    
    55   27   29 1    
    56   27   95 1    
    57   28   96 1    
    58   28   97 1    
    59   28   98 1    
    60   29   30 am   BACKBONE|DICT|INTERRES
    61   29   99 1    
    62   30   31 2    
    63   30   32 1    
    64   32   33 1    
    65   32   34 1    
    66   32  100 1    
    67   33  101 1    
    68   33  102 1    
    69   33  103 1    
    70   34   35 am   BACKBONE|DICT|INTERRES
    71   34  104 1    
    72   35   36 2    
    73   37   38 2    
    74   37   39 am   BACKBONE|DICT|INTERRES
    75   39   40 1    
    76   39  105 1    
    77   40   41 1    
    78   40   42 1    
    79   40  106 1    
    80   41  107 1    
    81   41  108 1    
    82   41  109 1    
    83   42   43 2    
    84   42   44 am   BACKBONE|DICT|INTERRES
    85   44   45 1    
    86   44  110 1    
    87   45   46 1    
    88   45   47 1    
    89   45  111 1    
    90   46  112 1    
    91   46  113 1    
    92   46  114 1    
    93   47   48 2    
    94   47   49 am   BACKBONE|DICT|INTERRES
    95   49   50 1    
    96   49  115 1    
    97   50   51 1    
    98   50   52 1    
    99   50  116 1    
   100   51  117 1    
   101   51  118 1    
   102   51  119 1    
   103   52   53 2    
   104   52   54 am   BACKBONE|DICT|INTERRES
   105   54   55 1    
   106   54  120 1    
   107   55   56 1    
   108   55   57 1    
   109   55  121 1    
   110   56  122 1    
   111   56  123 1    
   112   56  124 1    
   113   57   58 2    
   114   57   59 am   BACKBONE|DICT|INTERRES
   115   59   60 1    
   116   59  125 1    
   117   60   61 1    
   118   60   62 1    
   119   60  126 1    
   120   61  127 1    
   121   61  128 1    
   122   61  129 1    
   123   62   63 2    
   124   62   64 am   BACKBONE|DICT|INTERRES
   125   64   65 1    
   126   64  130 1    
   127   65   66 1    
   128   65   69 1    
   129   65  131 1    
   130   66   67 am   BACKBONE|DICT|INTERRES
   131   66   68 2    
   132   67  132 1    
   133   67  133 1    
   134   69   70 1    
   135   69  134 1    
   136   69  135 1    
   137   70   71 1    
   138   71  136 1    
   139   71  137 1    
@<TRIPOS>SUBSTRUCTURE
     1 UNK         1 GROUP             0       ****    0 ROOT    
