@<TRIPOS>MOLECULE
3R137
137   139    1
SMALL
USER_CHARGES


@<TRIPOS>ATOM
      1 CA         28.0441   -6.1868   -6.7678 C.3       0 UNK        -0.2020 
      2 C          28.3242   -5.4925   -5.4426 C.2       0 UNK         0.4855 
      3 O          29.3888   -4.8960   -5.2914 O.2       0 UNK        -0.5197 
      4 N          27.3747   -5.5822   -4.4991 N.am      1 UNK        -0.4892 
      5 CA         27.3690   -4.9769   -3.1587 C.3       1 UNK         0.0835 
      6 C6         28.6839   -5.2115   -2.3637 C.3       12 UNK        -0.0855 
      7 S7         28.4880   -4.9724   -0.5623 S.3       12 UNK        -0.2931 
      8 C8         30.1939   -4.6037   -0.0303 C.3       12 UNK         0.0378 
      9 C9         30.8207   -3.4288   -0.7739 C.ar      12 UNK        -0.0802 
     10 C10        31.9805   -3.6238   -1.5311 C.ar      12 UNK        -0.0944 
     11 C11        32.5758   -2.5576   -2.2115 C.ar      12 UNK        -0.0787 
     12 C12        32.0017   -1.2864   -2.1311 C.ar      12 UNK        -0.0862 
     13 C13        30.8307   -1.0813   -1.3961 C.ar      12 UNK        -0.0733 
     14 C14        30.2501   -2.1530   -0.7092 C.ar      12 UNK        -0.0832 
     15 C15        30.1919    0.2983   -1.3508 C.3       12 UNK         0.0240 
     16 S16        28.8028    0.4355   -2.5182 S.3       12 UNK        -0.2522 
     17 C17        29.6452    0.3212   -4.1307 C.3       12 UNK        -0.0967 
     18 CA         28.7829    0.7005   -5.3618 C.3       5 UNK         0.0660 
     19 N          27.8157   -0.3308   -5.7574 N.am      5 UNK        -0.4015 
     20 C          27.2855   -0.3874   -6.9903 C.2       4 UNK         0.4946 
     21 O          27.5796    0.3953   -7.8929 O.2       4 UNK        -0.5353 
     22 CA         26.2401   -1.4680   -7.2827 C.3       4 UNK         0.0277 
     23 CB         26.9156   -2.8037   -7.6156 C.3       4 UNK        -0.1981 
     24 N          25.3071   -1.6326   -6.1722 N.am      4 UNK        -0.4209 
     25 C          24.2718   -0.8123   -5.9436 C.2       3 UNK         0.4942 
     26 O          23.9931    0.1535   -6.6539 O.2       3 UNK        -0.5208 
     27 CA         23.4086   -1.1050   -4.7048 C.3       3 UNK         0.0250 
     28 CB         22.2720   -2.0779   -5.0566 C.3       3 UNK        -0.1990 
     29 N          24.1763   -1.6371   -3.5767 N.am      3 UNK        -0.4232 
     30 C          25.1288   -0.9532   -2.9291 C.2       2 UNK         0.4993 
     31 O          25.4593    0.1973   -3.2142 O.2       2 UNK        -0.5286 
     32 CA         25.8586   -1.6943   -1.7993 C.3       2 UNK         0.0209 
     33 CB         25.0159   -1.6843   -0.5138 C.3       2 UNK        -0.1931 
     34 N          26.2538   -3.0717   -2.1144 N.am      2 UNK        -0.4546 
     35 C          26.9457   -3.4893   -3.1867 C.2       1 UNK         0.5154 
     36 O          27.2315   -2.7647   -4.1442 O.2       1 UNK        -0.5181 
     37 C          28.1468    2.1048   -5.2858 C.2       5 UNK         0.5014 
     38 O          28.7901    3.0714   -5.6965 O.2       5 UNK        -0.5248 
     39 N          26.8822    2.1953   -4.8405 N.am      6 UNK        -0.4434 
     40 CA         26.0857    3.4277   -4.8571 C.3       6 UNK         0.0363 
     41 CB         24.7690    3.2052   -4.0972 C.3       6 UNK        -0.1936 
     42 C          25.8013    3.9451   -6.2790 C.2       6 UNK         0.5081 
     43 O          25.7831    5.1578   -6.4895 O.2       6 UNK        -0.5248 
     44 N          25.6082    3.0222   -7.2311 N.am      7 UNK        -0.4718 
     45 CA         25.4283    3.3180   -8.6554 C.3       7 UNK         0.0273 
     46 CB         24.6764    2.1458   -9.3085 C.3       7 UNK        -0.1935 
     47 C          26.7527    3.5782   -9.3993 C.2       7 UNK         0.5018 
     48 O          26.7085    4.0093  -10.5521 O.2       7 UNK        -0.5186 
     49 N          27.8910    3.2787   -8.7532 N.am      8 UNK        -0.4240 
     50 CA         29.2548    3.2501   -9.2984 C.3       8 UNK         0.0235 
     51 CB         29.7247    4.6629   -9.7048 C.3       8 UNK        -0.2000 
     52 C          29.4301    2.2058  -10.4223 C.2       8 UNK         0.4941 
     53 O          30.2447    2.4014  -11.3261 O.2       8 UNK        -0.5273 
     54 N          28.6659    1.1090  -10.3392 N.am      9 UNK        -0.4262 
     55 CA         28.6998   -0.0262  -11.2618 C.3       9 UNK         0.0264 
     56 CB         27.2944   -0.6461  -11.3340 C.3       9 UNK        -0.1955 
     57 C          29.7345   -1.0846  -10.8427 C.2       9 UNK         0.5031 
     58 O          30.1377   -1.8933  -11.6800 O.2       9 UNK        -0.5390 
     59 N          30.1482   -1.0624   -9.5711 N.am      10 UNK        -0.4204 
     60 CA         31.1964   -1.8955   -8.9924 C.3       10 UNK         0.0237 
     61 CB         30.5614   -3.1036   -8.2817 C.3       10 UNK        -0.1985 
     62 C          31.9894   -1.0393   -8.0005 C.2       10 UNK         0.4970 
     63 O          31.4621   -0.0379   -7.5113 O.2       10 UNK        -0.4914 
     64 N          33.2281   -1.4578   -7.7132 N.am      11 UNK        -0.4285 
     65 CA         34.1282   -0.8520   -6.7125 C.3       11 UNK         0.1007 
     66 C          34.5639    0.6168   -7.0147 C.2       11 UNK         0.5703 
     67 N          34.4616    1.0931   -8.2501 N.am      11 UNK        -0.7361 
     68 O          35.0388    1.3265   -6.1308 O.2       11 UNK        -0.4986 
     69 C69        33.6074   -1.0499   -5.2581 C.3       12 UNK        -0.0947 
     70 S70        33.4863   -2.8179   -4.8150 S.3       12 UNK        -0.2240 
     71 C71        33.8396   -2.7830   -3.0290 C.3       12 UNK         0.0194 
     72 H72        28.6715   -7.0723   -6.8654 H         1 UNK         0.0906 
     73 H73        27.0022   -6.4939   -6.8570 H         1 UNK         0.0906 
     74 H74        28.2706   -5.5191   -7.5986 H         1 UNK         0.0906 
     75 H75        26.5279   -6.0852   -4.7273 H         1 UNK         0.3140 
     76 H76        26.5774   -5.5160   -2.6351 H         1 UNK         0.1085 
     77 H77        29.4707   -4.5590   -2.7437 H         1 UNK         0.0836 
     78 H78        29.0385   -6.2313   -2.5199 H         1 UNK         0.0836 
     79 H79        30.7966   -5.5052   -0.1522 H         1 UNK         0.0731 
     80 H80        30.1889   -4.3833    1.0380 H         1 UNK         0.0731 
     81 H81        32.4221   -4.6092   -1.5927 H         1 UNK         0.1312 
     82 H82        32.4575   -0.4590   -2.6565 H         1 UNK         0.1406 
     83 H83        29.3441   -1.9993   -0.1385 H         1 UNK         0.1631 
     84 H84        30.9273    1.0750   -1.5665 H         1 UNK         0.0717 
     85 H85        29.8252    0.4978   -0.3429 H         1 UNK         0.0717 
     86 H86        30.5254    0.9659   -4.0985 H         1 UNK         0.0934 
     87 H87        30.0282   -0.6939   -4.2517 H         1 UNK         0.0934 
     88 H88        29.4899    0.7662   -6.1890 H         1 UNK         0.0739 
     89 H89        27.5617   -1.0299   -5.0642 H         1 UNK         0.3093 
     90 H90        25.6747   -1.1558   -8.1637 H         1 UNK         0.0818 
     91 H91        27.5613   -3.1323   -6.8031 H         1 UNK         0.0819 
     92 H92        26.1827   -3.5875   -7.8069 H         1 UNK         0.0819 
     93 H93        27.5361   -2.7132   -8.5078 H         1 UNK         0.0819 
     94 H94        25.5307   -2.3459   -5.4900 H         1 UNK         0.3041 
     95 H95        22.9632   -0.1595   -4.3872 H         1 UNK         0.0784 
     96 H96        21.6715   -1.6925   -5.8821 H         1 UNK         0.0793 
     97 H97        22.6531   -3.0542   -5.3592 H         1 UNK         0.0793 
     98 H98        21.5996   -2.2258   -4.2113 H         1 UNK         0.0793 
     99 H99        23.9731   -2.5806   -3.2801 H         1 UNK         0.3024 
    100 H100       26.7751   -1.1466   -1.5904 H         1 UNK         0.1171 
    101 H101       25.5757   -2.0875    0.3304 H         1 UNK         0.0786 
    102 H102       24.7225   -0.6676   -0.2476 H         1 UNK         0.0786 
    103 H103       24.1023   -2.2700   -0.6221 H         1 UNK         0.0786 
    104 H104       26.0900   -3.7458   -1.3799 H         1 UNK         0.2977 
    105 H105       26.4372    1.3709   -4.4424 H         1 UNK         0.3127 
    106 H106       26.6558    4.1982   -4.3338 H         1 UNK         0.0770 
    107 H107       24.1715    2.4131   -4.5510 H         1 UNK         0.0814 
    108 H108       24.1619    4.1114   -4.0907 H         1 UNK         0.0814 
    109 H109       24.9533    2.9314   -3.0583 H         1 UNK         0.0814 
    110 H110       25.6064    2.0449   -6.9688 H         1 UNK         0.2983 
    111 H111       24.8161    4.2170   -8.7564 H         1 UNK         0.0947 
    112 H112       24.4885    2.3386  -10.3656 H         1 UNK         0.0806 
    113 H113       23.7092    1.9810   -8.8333 H         1 UNK         0.0806 
    114 H114       25.2433    1.2163   -9.2425 H         1 UNK         0.0806 
    115 H115       27.8017    2.9282   -7.8077 H         1 UNK         0.3000 
    116 H116       29.8940    2.9145   -8.4799 H         1 UNK         0.0850 
    117 H117       30.7840    4.6621   -9.9646 H         1 UNK         0.0810 
    118 H118       29.5930    5.3736   -8.8890 H         1 UNK         0.0810 
    119 H119       29.1794    5.0391  -10.5707 H         1 UNK         0.0810 
    120 H120       28.0779    0.9988   -9.5130 H         1 UNK         0.3040 
    121 H121       28.9703    0.3272  -12.2591 H         1 UNK         0.0766 
    122 H122       26.5580    0.0824  -11.6739 H         1 UNK         0.0812 
    123 H123       26.9687   -1.0230  -10.3644 H         1 UNK         0.0812 
    124 H124       27.2715   -1.4821  -12.0343 H         1 UNK         0.0812 
    125 H125       29.8115   -0.3295   -8.9580 H         1 UNK         0.3205 
    126 H126       31.8743   -2.2407   -9.7761 H         1 UNK         0.0754 
    127 H127       31.3254   -3.7678   -7.8758 H         1 UNK         0.0769 
    128 H128       29.9498   -3.6925   -8.9653 H         1 UNK         0.0769 
    129 H129       29.9312   -2.7928   -7.4472 H         1 UNK         0.0769 
    130 H130       33.5836   -2.2846   -8.1706 H         1 UNK         0.2981 
    131 H131       35.0596   -1.4135   -6.7924 H         1 UNK         0.0541 
    132 H132       34.0849    0.5222   -8.9890 H         1 UNK         0.3459 
    133 H133       34.7568    2.0375   -8.4399 H         1 UNK         0.3459 
    134 H134       34.2776   -0.5661   -4.5465 H         1 UNK         0.0612 
    135 H135       32.6310   -0.5826   -5.1249 H         1 UNK         0.0612 
    136 H136       34.5804   -2.0170   -2.7971 H         1 UNK         0.0624 
    137 H137       34.2983   -3.7342   -2.7549 H         1 UNK         0.0624 
@<TRIPOS>BOND
     1    1    2 1    
     2    1   72 1    
     3    1   73 1    
     4    1   74 1    
     5    2    3 2    
     6    2    4 am   BACKBONE|DICT|INTERRES
     7    4    5 1    
     8    4   75 1    
     9    5    6 1    
    10    5   35 1    
    11    5   76 1    
    12    6    7 1    
    13    6   77 1    
    14    6   78 1    
    15    7    8 1    
    16    8    9 1    
    17    8   79 1    
    18    8   80 1    
    19    9   10 ar   
    20    9   14 ar   
    21   10   11 ar   
    22   10   81 1    
    23   11   12 ar   
    24   11   71 1    
    25   12   13 ar   
    26   12   82 1    
    27   13   14 ar   
    28   13   15 1    
    29   14   83 1    
    30   15   16 1    
    31   15   84 1    
    32   15   85 1    
    33   16   17 1    
    34   17   18 1    
    35   17   86 1    
    36   17   87 1    
    37   18   19 1    
    38   18   37 1    
    39   18   88 1    
    40   19   20 am   BACKBONE|DICT|INTERRES
    41   19   89 1    
    42   20   21 2    
    43   20   22 1    
    44   22   23 1    
    45   22   24 1    
    46   22   90 1    
    47   23   91 1    
    48   23   92 1    
    49   23   93 1    
    50   24   25 am   BACKBONE|DICT|INTERRES
    51   24   94 1    
    52   25   26 2    
    53   25   27 1    
    54   27   28 1    
    55   27   29 1    
    56   27   95 1    
    57   28   96 1    
    58   28   97 1    
    59   28   98 1    
    60   29   30 am   BACKBONE|DICT|INTERRES
    61   29   99 1    
    62   30   31 2    
    63   30   32 1    
    64   32   33 1    
    65   32   34 1    
    66   32  100 1    
    67   33  101 1    
    68   33  102 1    
    69   33  103 1    
    70   34   35 am   BACKBONE|DICT|INTERRES
    71   34  104 1    
    72   35   36 2    
    73   37   38 2    
    74   37   39 am   BACKBONE|DICT|INTERRES
    75   39   40 1    
    76   39  105 1    
    77   40   41 1    
    78   40   42 1    
    79   40  106 1    
    80   41  107 1    
    81   41  108 1    
    82   41  109 1    
    83   42   43 2    
    84   42   44 am   BACKBONE|DICT|INTERRES
    85   44   45 1    
    86   44  110 1    
    87   45   46 1    
    88   45   47 1    
    89   45  111 1    
    90   46  112 1    
    91   46  113 1    
    92   46  114 1    
    93   47   48 2    
    94   47   49 am   BACKBONE|DICT|INTERRES
    95   49   50 1    
    96   49  115 1    
    97   50   51 1    
    98   50   52 1    
    99   50  116 1    
   100   51  117 1    
   101   51  118 1    
   102   51  119 1    
   103   52   53 2    
   104   52   54 am   BACKBONE|DICT|INTERRES
   105   54   55 1    
   106   54  120 1    
   107   55   56 1    
   108   55   57 1    
   109   55  121 1    
   110   56  122 1    
   111   56  123 1    
   112   56  124 1    
   113   57   58 2    
   114   57   59 am   BACKBONE|DICT|INTERRES
   115   59   60 1    
   116   59  125 1    
   117   60   61 1    
   118   60   62 1    
   119   60  126 1    
   120   61  127 1    
   121   61  128 1    
   122   61  129 1    
   123   62   63 2    
   124   62   64 am   BACKBONE|DICT|INTERRES
   125   64   65 1    
   126   64  130 1    
   127   65   66 1    
   128   65   69 1    
   129   65  131 1    
   130   66   67 am   BACKBONE|DICT|INTERRES
   131   66   68 2    
   132   67  132 1    
   133   67  133 1    
   134   69   70 1    
   135   69  134 1    
   136   69  135 1    
   137   70   71 1    
   138   71  136 1    
   139   71  137 1    
@<TRIPOS>SUBSTRUCTURE
     1 UNK         1 GROUP             0       ****    0 ROOT    
