@<TRIPOS>MOLECULE
3R137
137   139    1
SMALL
USER_CHARGES


@<TRIPOS>ATOM
      1 CA         29.6095    1.6909    1.5893 C.3       0 UNK        -0.2020 
      2 C          29.0286    1.1211    0.3040 C.2       0 UNK         0.4855 
      3 O          28.1327    1.7264   -0.2855 O.2       0 UNK        -0.5197 
      4 N          29.5375   -0.0334   -0.1412 N.am      1 UNK        -0.4892 
      5 CA         29.0511   -0.7640   -1.3135 C.3       1 UNK         0.0835 
      6 C6         30.1049   -1.7707   -1.8455 C.3       12 UNK        -0.0855 
      7 S7         30.8045   -2.9097   -0.5908 S.3       12 UNK        -0.2931 
      8 C8         30.3229   -4.5624   -1.2059 C.3       12 UNK         0.0378 
      9 C9         30.7168   -4.7959   -2.6608 C.ar      12 UNK        -0.0802 
     10 C10        32.0334   -4.5945   -3.0890 C.ar      12 UNK        -0.0944 
     11 C11        32.3640   -4.7045   -4.4430 C.ar      12 UNK        -0.0787 
     12 C12        31.3741   -5.0464   -5.3677 C.ar      12 UNK        -0.0862 
     13 C13        30.0591   -5.2703   -4.9517 C.ar      12 UNK        -0.0733 
     14 C14        29.7427   -5.1661   -3.5925 C.ar      12 UNK        -0.0832 
     15 C15        28.9785   -5.5523   -5.9918 C.3       12 UNK         0.0240 
     16 S16        27.4645   -4.5517   -5.7702 S.3       12 UNK        -0.2522 
     17 C17        28.1114   -2.8680   -5.4704 C.3       12 UNK        -0.0967 
     18 CA         27.7891   -1.8788   -6.6066 C.3       5 UNK         0.0660 
     19 N          26.3514   -1.7341   -6.8464 N.am      5 UNK        -0.4015 
     20 C          25.8386   -1.0922   -7.9057 C.2       4 UNK         0.4946 
     21 O          26.5326   -0.6052   -8.7999 O.2       4 UNK        -0.5353 
     22 CA         24.3142   -0.8908   -7.9552 C.3       4 UNK         0.0277 
     23 CB         23.6596   -2.0038   -8.7868 C.3       4 UNK        -0.1981 
     24 N          23.6677   -0.8175   -6.6398 N.am      4 UNK        -0.4209 
     25 C          23.9873    0.0257   -5.6463 C.2       3 UNK         0.4942 
     26 O          24.8744    0.8763   -5.7320 O.2       3 UNK        -0.5208 
     27 CA         23.2474   -0.1463   -4.3057 C.3       3 UNK         0.0250 
     28 CB         21.9360   -0.9573   -4.4172 C.3       3 UNK        -0.1990 
     29 N          24.1112   -0.7240   -3.2642 N.am      3 UNK        -0.4232 
     30 C          24.8234   -1.8585   -3.3475 C.2       2 UNK         0.4993 
     31 O          24.9200   -2.5374   -4.3718 O.2       2 UNK        -0.5286 
     32 CA         25.5992   -2.2771   -2.0930 C.3       2 UNK         0.0209 
     33 CB         25.7992   -3.8064   -2.0189 C.3       2 UNK        -0.1931 
     34 N          26.8927   -1.5999   -2.1052 N.am      2 UNK        -0.4546 
     35 C          27.6887   -1.4373   -1.0422 C.2       1 UNK         0.5154 
     36 O          27.3941   -1.8115    0.0965 O.2       1 UNK        -0.5181 
     37 C          28.4939   -0.5280   -6.3467 C.2       5 UNK         0.5014 
     38 O          29.6993   -0.4311   -6.5774 O.2       5 UNK        -0.5248 
     39 N          27.7567    0.4863   -5.8743 N.am      6 UNK        -0.4434 
     40 CA         28.2439    1.8562   -5.7221 C.3       6 UNK         0.0363 
     41 CB         27.7518    2.4328   -4.3841 C.3       6 UNK        -0.1936 
     42 C          27.7801    2.7295   -6.8953 C.2       6 UNK         0.5081 
     43 O          28.5859    3.4812   -7.4412 O.2       6 UNK        -0.5248 
     44 N          26.4959    2.6217   -7.2611 N.am      7 UNK        -0.4718 
     45 CA         25.8502    3.4783   -8.2572 C.3       7 UNK         0.0273 
     46 CB         24.3240    3.3569   -8.1202 C.3       7 UNK        -0.1935 
     47 C          26.2876    3.2177   -9.7086 C.2       7 UNK         0.5018 
     48 O          26.3149    4.1692  -10.4906 O.2       7 UNK        -0.5186 
     49 N          26.5987    1.9600  -10.0525 N.am      8 UNK        -0.4240 
     50 CA         26.9704    1.5463  -11.4075 C.3       8 UNK         0.0235 
     51 CB         25.9533    0.5214  -11.9406 C.3       8 UNK        -0.2000 
     52 C          28.3964    0.9855  -11.4566 C.2       8 UNK         0.4941 
     53 O          29.1807    1.4333  -12.2940 O.2       8 UNK        -0.5273 
     54 N          28.7174    0.0188  -10.5818 N.am      9 UNK        -0.4262 
     55 CA         30.0191   -0.6672  -10.5879 C.3       9 UNK         0.0264 
     56 CB         29.9150   -2.0147   -9.8567 C.3       9 UNK        -0.1955 
     57 C          31.1664    0.1731   -9.9976 C.2       9 UNK         0.5031 
     58 O          32.3250   -0.0948  -10.3187 O.2       9 UNK        -0.5390 
     59 N          30.8275    1.1577   -9.1520 N.am      10 UNK        -0.4204 
     60 CA         31.7238    2.1125   -8.4874 C.3       10 UNK         0.0237 
     61 CB         32.3995    3.0389   -9.5217 C.3       10 UNK        -0.1985 
     62 C          32.7317    1.4792   -7.5045 C.2       10 UNK         0.4970 
     63 O          33.7702    2.0857   -7.2347 O.2       10 UNK        -0.4914 
     64 N          32.4040    0.3024   -6.9550 N.am      11 UNK        -0.4285 
     65 CA         33.1127   -0.2995   -5.8170 C.3       11 UNK         0.1007 
     66 C          32.6575    0.3323   -4.4717 C.2       11 UNK         0.5703 
     67 N          31.3739    0.6323   -4.3083 N.am      11 UNK        -0.7361 
     68 O          33.4733    0.5811   -3.5885 O.2       11 UNK        -0.4986 
     69 C69        32.9674   -1.8436   -5.8129 C.3       12 UNK        -0.0947 
     70 S70        34.2170   -2.6554   -4.7561 S.3       12 UNK        -0.2240 
     71 C71        33.7810   -4.4166   -4.9173 C.3       12 UNK         0.0194 
     72 H72        30.4456    1.0940    1.9591 H         1 UNK         0.0906 
     73 H73        29.9670    2.7082    1.4209 H         1 UNK         0.0906 
     74 H74        28.8426    1.7214    2.3653 H         1 UNK         0.0906 
     75 H75        30.2439   -0.5167    0.3965 H         1 UNK         0.3140 
     76 H76        28.8872   -0.0259   -2.1016 H         1 UNK         0.1085 
     77 H77        29.7004   -2.3305   -2.6892 H         1 UNK         0.0836 
     78 H78        30.9480   -1.2158   -2.2576 H         1 UNK         0.0836 
     79 H79        30.7949   -5.3236   -0.5837 H         1 UNK         0.0731 
     80 H80        29.2460   -4.6774   -1.0715 H         1 UNK         0.0731 
     81 H81        32.7920   -4.3033   -2.3752 H         1 UNK         0.1312 
     82 H82        31.6237   -5.1104   -6.4181 H         1 UNK         0.1406 
     83 H83        28.7217   -5.3206   -3.2710 H         1 UNK         0.1631 
     84 H84        28.7128   -6.6092   -5.9503 H         1 UNK         0.0717 
     85 H85        29.3582   -5.3678   -6.9980 H         1 UNK         0.0717 
     86 H86        29.1902   -2.9005   -5.3162 H         1 UNK         0.0934 
     87 H87        27.6909   -2.5209   -4.5291 H         1 UNK         0.0934 
     88 H88        28.2131   -2.2916   -7.5207 H         1 UNK         0.0739 
     89 H89        25.7314   -2.1113   -6.1335 H         1 UNK         0.3093 
     90 H90        24.1334    0.0578   -8.4611 H         1 UNK         0.0818 
     91 H91        22.5935   -1.8229   -8.9247 H         1 UNK         0.0819 
     92 H92        24.1066   -2.0624   -9.7804 H         1 UNK         0.0819 
     93 H93        23.7783   -2.9815   -8.3177 H         1 UNK         0.0819 
     94 H94        22.9563   -1.5088   -6.4515 H         1 UNK         0.3041 
     95 H95        22.9866    0.8605   -3.9758 H         1 UNK         0.0784 
     96 H96        21.2730   -0.5375   -5.1754 H         1 UNK         0.0793 
     97 H97        22.1138   -2.0038   -4.6683 H         1 UNK         0.0793 
     98 H98        21.3885   -0.9391   -3.4748 H         1 UNK         0.0793 
     99 H99        24.1525   -0.1990   -2.4013 H         1 UNK         0.3024 
    100 H100       25.0296   -1.9604   -1.2162 H         1 UNK         0.1171 
    101 H101       26.2711   -4.1045   -1.0828 H         1 UNK         0.0786 
    102 H102       26.4206   -4.1732   -2.8364 H         1 UNK         0.0786 
    103 H103       24.8428   -4.3273   -2.0779 H         1 UNK         0.0786 
    104 H104       27.1746   -1.2242   -2.9986 H         1 UNK         0.2977 
    105 H105       26.7567    0.3567   -5.7513 H         1 UNK         0.3127 
    106 H106       29.3347    1.8811   -5.7134 H         1 UNK         0.0770 
    107 H107       26.6633    2.4359   -4.3151 H         1 UNK         0.0814 
    108 H108       28.0889    3.4624   -4.2566 H         1 UNK         0.0814 
    109 H109       28.1372    1.8621   -3.5398 H         1 UNK         0.0814 
    110 H110       25.8884    1.9941   -6.7378 H         1 UNK         0.2983 
    111 H111       26.1215    4.5110   -8.0253 H         1 UNK         0.0947 
    112 H112       23.8157    4.0300   -8.8120 H         1 UNK         0.0806 
    113 H113       23.9938    3.6174   -7.1145 H         1 UNK         0.0806 
    114 H114       23.9757    2.3475   -8.3347 H         1 UNK         0.0806 
    115 H115       26.5566    1.2237   -9.3540 H         1 UNK         0.3000 
    116 H116       26.9479    2.4023  -12.0853 H         1 UNK         0.0850 
    117 H117       26.2018    0.2219  -12.9596 H         1 UNK         0.0810 
    118 H118       24.9474    0.9406  -11.9633 H         1 UNK         0.0810 
    119 H119       25.9220   -0.3845  -11.3354 H         1 UNK         0.0810 
    120 H120       28.0070   -0.3142   -9.9327 H         1 UNK         0.3040 
    121 H121       30.2737   -0.8801  -11.6287 H         1 UNK         0.0766 
    122 H122       30.7489   -2.6611  -10.1322 H         1 UNK         0.0812 
    123 H123       29.9645   -1.8902   -8.7775 H         1 UNK         0.0812 
    124 H124       28.9963   -2.5466  -10.1038 H         1 UNK         0.0812 
    125 H125       29.8453    1.2675   -8.9442 H         1 UNK         0.3205 
    126 H126       31.0811    2.7391   -7.8691 H         1 UNK         0.0754 
    127 H127       32.9341    3.8533   -9.0312 H         1 UNK         0.0769 
    128 H128       31.6640    3.4923  -10.1863 H         1 UNK         0.0769 
    129 H129       33.1210    2.5005  -10.1368 H         1 UNK         0.0769 
    130 H130       31.4873   -0.0857   -7.1549 H         1 UNK         0.2981 
    131 H131       34.1750   -0.0765   -5.9336 H         1 UNK         0.0541 
    132 H132       30.7106    0.3964   -5.0345 H         1 UNK         0.3459 
    133 H133       31.0774    1.0778   -3.4563 H         1 UNK         0.3459 
    134 H134       33.0930   -2.2334   -6.8241 H         1 UNK         0.0612 
    135 H135       31.9649   -2.1354   -5.4949 H         1 UNK         0.0612 
    136 H136       33.9155   -4.7212   -5.9563 H         1 UNK         0.0624 
    137 H137       34.4835   -5.0088   -4.3295 H         1 UNK         0.0624 
@<TRIPOS>BOND
     1    1    2 1    
     2    1   72 1    
     3    1   73 1    
     4    1   74 1    
     5    2    3 2    
     6    2    4 am   BACKBONE|DICT|INTERRES
     7    4    5 1    
     8    4   75 1    
     9    5    6 1    
    10    5   35 1    
    11    5   76 1    
    12    6    7 1    
    13    6   77 1    
    14    6   78 1    
    15    7    8 1    
    16    8    9 1    
    17    8   79 1    
    18    8   80 1    
    19    9   10 ar   
    20    9   14 ar   
    21   10   11 ar   
    22   10   81 1    
    23   11   12 ar   
    24   11   71 1    
    25   12   13 ar   
    26   12   82 1    
    27   13   14 ar   
    28   13   15 1    
    29   14   83 1    
    30   15   16 1    
    31   15   84 1    
    32   15   85 1    
    33   16   17 1    
    34   17   18 1    
    35   17   86 1    
    36   17   87 1    
    37   18   19 1    
    38   18   37 1    
    39   18   88 1    
    40   19   20 am   BACKBONE|DICT|INTERRES
    41   19   89 1    
    42   20   21 2    
    43   20   22 1    
    44   22   23 1    
    45   22   24 1    
    46   22   90 1    
    47   23   91 1    
    48   23   92 1    
    49   23   93 1    
    50   24   25 am   BACKBONE|DICT|INTERRES
    51   24   94 1    
    52   25   26 2    
    53   25   27 1    
    54   27   28 1    
    55   27   29 1    
    56   27   95 1    
    57   28   96 1    
    58   28   97 1    
    59   28   98 1    
    60   29   30 am   BACKBONE|DICT|INTERRES
    61   29   99 1    
    62   30   31 2    
    63   30   32 1    
    64   32   33 1    
    65   32   34 1    
    66   32  100 1    
    67   33  101 1    
    68   33  102 1    
    69   33  103 1    
    70   34   35 am   BACKBONE|DICT|INTERRES
    71   34  104 1    
    72   35   36 2    
    73   37   38 2    
    74   37   39 am   BACKBONE|DICT|INTERRES
    75   39   40 1    
    76   39  105 1    
    77   40   41 1    
    78   40   42 1    
    79   40  106 1    
    80   41  107 1    
    81   41  108 1    
    82   41  109 1    
    83   42   43 2    
    84   42   44 am   BACKBONE|DICT|INTERRES
    85   44   45 1    
    86   44  110 1    
    87   45   46 1    
    88   45   47 1    
    89   45  111 1    
    90   46  112 1    
    91   46  113 1    
    92   46  114 1    
    93   47   48 2    
    94   47   49 am   BACKBONE|DICT|INTERRES
    95   49   50 1    
    96   49  115 1    
    97   50   51 1    
    98   50   52 1    
    99   50  116 1    
   100   51  117 1    
   101   51  118 1    
   102   51  119 1    
   103   52   53 2    
   104   52   54 am   BACKBONE|DICT|INTERRES
   105   54   55 1    
   106   54  120 1    
   107   55   56 1    
   108   55   57 1    
   109   55  121 1    
   110   56  122 1    
   111   56  123 1    
   112   56  124 1    
   113   57   58 2    
   114   57   59 am   BACKBONE|DICT|INTERRES
   115   59   60 1    
   116   59  125 1    
   117   60   61 1    
   118   60   62 1    
   119   60  126 1    
   120   61  127 1    
   121   61  128 1    
   122   61  129 1    
   123   62   63 2    
   124   62   64 am   BACKBONE|DICT|INTERRES
   125   64   65 1    
   126   64  130 1    
   127   65   66 1    
   128   65   69 1    
   129   65  131 1    
   130   66   67 am   BACKBONE|DICT|INTERRES
   131   66   68 2    
   132   67  132 1    
   133   67  133 1    
   134   69   70 1    
   135   69  134 1    
   136   69  135 1    
   137   70   71 1    
   138   71  136 1    
   139   71  137 1    
@<TRIPOS>SUBSTRUCTURE
     1 UNK         1 GROUP             0       ****    0 ROOT    
