@<TRIPOS>MOLECULE
3R137
137   139    1
SMALL
USER_CHARGES


@<TRIPOS>ATOM
      1 CA         25.8513   -6.3443   -0.3745 C.3       0 UNK        -0.2020 
      2 C          26.6036   -5.0247   -0.4518 C.2       0 UNK         0.4855 
      3 O          26.4370   -4.1707    0.4204 O.2       0 UNK        -0.5197 
      4 N          27.4268   -4.8428   -1.4922 N.am      1 UNK        -0.4892 
      5 CA         28.2336   -3.6426   -1.7411 C.3       1 UNK         0.0835 
      6 C6         29.4442   -3.9452   -2.6621 C.3       12 UNK        -0.0855 
      7 S7         30.7798   -4.8154   -1.7786 S.3       12 UNK        -0.2931 
      8 C8         31.5760   -3.4526   -0.8562 C.3       12 UNK         0.0378 
      9 C9         31.9785   -2.2786   -1.7426 C.ar      12 UNK        -0.0802 
     10 C10        32.9962   -2.4313   -2.6862 C.ar      12 UNK        -0.0944 
     11 C11        33.3833   -1.3627   -3.5023 C.ar      12 UNK        -0.0787 
     12 C12        32.7525   -0.1228   -3.3492 C.ar      12 UNK        -0.0862 
     13 C13        31.7414    0.0512   -2.3963 C.ar      12 UNK        -0.0733 
     14 C14        31.3517   -1.0351   -1.6047 C.ar      12 UNK        -0.0832 
     15 C15        31.1271    1.4283   -2.1577 C.3       12 UNK         0.0240 
     16 S16        30.3509    2.1563   -3.6370 S.3       12 UNK        -0.2522 
     17 C17        28.8458    1.1448   -3.8158 C.3       12 UNK        -0.0967 
     18 CA         28.4620    0.9739   -5.3060 C.3       5 UNK         0.0660 
     19 N          27.8355   -0.3190   -5.5715 N.am      5 UNK        -0.4015 
     20 C          27.6278   -0.8205   -6.7945 C.2       4 UNK         0.4946 
     21 O          28.0017   -0.2652   -7.8267 O.2       4 UNK        -0.5353 
     22 CA         26.8705   -2.1526   -6.8801 C.3       4 UNK         0.0277 
     23 CB         27.8376   -3.3366   -6.7259 C.3       4 UNK        -0.1981 
     24 N          25.8129   -2.2407   -5.8710 N.am      4 UNK        -0.4209 
     25 C          24.6385   -1.6000   -5.9552 C.2       3 UNK         0.4942 
     26 O          24.3070   -0.9020   -6.9126 O.2       3 UNK        -0.5208 
     27 CA         23.6807   -1.7400   -4.7589 C.3       3 UNK         0.0250 
     28 CB         22.8778   -3.0471   -4.8573 C.3       3 UNK        -0.1990 
     29 N          24.3567   -1.6759   -3.4599 N.am      3 UNK        -0.4232 
     30 C          25.0048   -0.5978   -2.9977 C.2       2 UNK         0.4993 
     31 O          25.1164    0.4569   -3.6198 O.2       2 UNK        -0.5286 
     32 CA         25.6975   -0.7319   -1.6334 C.3       2 UNK         0.0209 
     33 CB         24.6804   -0.5765   -0.4916 C.3       2 UNK        -0.1931 
     34 N          26.4645   -1.9688   -1.4420 N.am      2 UNK        -0.4546 
     35 C          27.3760   -2.4806   -2.2803 C.2       1 UNK         0.5154 
     36 O          27.5554   -2.0664   -3.4261 O.2       1 UNK        -0.5181 
     37 C          27.6051    2.1404   -5.8465 C.2       5 UNK         0.5014 
     38 O          28.1365    3.0211   -6.5258 O.2       5 UNK        -0.5248 
     39 N          26.2866    2.0908   -5.5976 N.am      6 UNK        -0.4434 
     40 CA         25.2971    3.0342   -6.1271 C.3       6 UNK         0.0363 
     41 CB         23.9285    2.7654   -5.4823 C.3       6 UNK        -0.1936 
     42 C          25.1760    3.0043   -7.6603 C.2       6 UNK         0.5081 
     43 O          24.9161    4.0473   -8.2615 O.2       6 UNK        -0.5248 
     44 N          25.4059    1.8379   -8.2795 N.am      7 UNK        -0.4718 
     45 CA         25.4301    1.6312   -9.7318 C.3       7 UNK         0.0273 
     46 CB         25.1809    0.1411  -10.0309 C.3       7 UNK        -0.1935 
     47 C          26.7285    2.1553  -10.3830 C.2       7 UNK         0.5018 
     48 O          27.3806    1.4252  -11.1303 O.2       7 UNK        -0.5186 
     49 N          27.0720    3.4171  -10.0866 N.am      8 UNK        -0.4240 
     50 CA         28.2347    4.1725  -10.5659 C.3       8 UNK         0.0235 
     51 CB         28.0809    4.4995  -12.0671 C.3       8 UNK        -0.2000 
     52 C          29.5822    3.5010  -10.2309 C.2       8 UNK         0.4941 
     53 O          30.4690    3.4552  -11.0860 O.2       8 UNK        -0.5273 
     54 N          29.7112    3.0081   -8.9882 N.am      9 UNK        -0.4262 
     55 CA         30.8889    2.3393   -8.4237 C.3       9 UNK         0.0264 
     56 CB         32.0548    3.3366   -8.2507 C.3       9 UNK        -0.1955 
     57 C          31.2886    1.0667   -9.1952 C.2       9 UNK         0.5031 
     58 O          32.4594    0.9028   -9.5457 O.2       9 UNK        -0.5390 
     59 N          30.3140    0.1770   -9.4381 N.am      10 UNK        -0.4204 
     60 CA         30.5329   -1.1160  -10.0948 C.3       10 UNK         0.0237 
     61 CB         29.1924   -1.6997  -10.5717 C.3       10 UNK        -0.1985 
     62 C          31.2758   -2.1234   -9.2003 C.2       10 UNK         0.4970 
     63 O          31.9203   -3.0250   -9.7369 O.2       10 UNK        -0.4914 
     64 N          31.1789   -1.9537   -7.8716 N.am      11 UNK        -0.4285 
     65 CA         31.8902   -2.6965   -6.8126 C.3       11 UNK         0.1007 
     66 C          31.4815   -4.1941   -6.6582 C.2       11 UNK         0.5703 
     67 N          31.1501   -4.9051   -7.7270 N.am      11 UNK        -0.7361 
     68 O          31.4223   -4.7075   -5.5453 O.2       11 UNK        -0.4986 
     69 C69        33.4281   -2.4931   -6.9325 C.3       12 UNK        -0.0947 
     70 S70        34.4118   -3.0409   -5.4986 S.3       12 UNK        -0.2240 
     71 C71        34.5338   -1.5245   -4.4910 C.3       12 UNK         0.0194 
     72 H72        24.7766   -6.1644   -0.3829 H         1 UNK         0.0906 
     73 H73        26.0921   -7.0015   -1.2099 H         1 UNK         0.0906 
     74 H74        26.1024   -6.8647    0.5494 H         1 UNK         0.0906 
     75 H75        27.5200   -5.5764   -2.1807 H         1 UNK         0.3140 
     76 H76        28.6236   -3.2911   -0.7838 H         1 UNK         0.1085 
     77 H77        29.1363   -4.5519   -3.5154 H         1 UNK         0.0836 
     78 H78        29.8648   -3.0394   -3.1012 H         1 UNK         0.0836 
     79 H79        32.4656   -3.8422   -0.3593 H         1 UNK         0.0731 
     80 H80        30.9090   -3.1234   -0.0584 H         1 UNK         0.0731 
     81 H81        33.4883   -3.3896   -2.7829 H         1 UNK         0.1312 
     82 H82        33.0661    0.7196   -3.9508 H         1 UNK         0.1406 
     83 H83        30.5782   -0.9052   -0.8601 H         1 UNK         0.1631 
     84 H84        31.9153    2.1011   -1.8173 H         1 UNK         0.0717 
     85 H85        30.3896    1.3961   -1.3541 H         1 UNK         0.0717 
     86 H86        29.0508    0.1705   -3.3701 H         1 UNK         0.0934 
     87 H87        28.0333    1.5765   -3.2279 H         1 UNK         0.0934 
     88 H88        29.3857    0.9594   -5.8848 H         1 UNK         0.0739 
     89 H89        27.5648   -0.8777   -4.7635 H         1 UNK         0.3093 
     90 H90        26.4126   -2.2148   -7.8696 H         1 UNK         0.0818 
     91 H91        27.3126   -4.2895   -6.7919 H         1 UNK         0.0819 
     92 H92        28.5867   -3.3291   -7.5179 H         1 UNK         0.0819 
     93 H93        28.3679   -3.3114   -5.7730 H         1 UNK         0.0819 
     94 H94        26.0391   -2.7291   -5.0151 H         1 UNK         0.3041 
     95 H95        22.9777   -0.9053   -4.8059 H         1 UNK         0.0784 
     96 H96        22.3506   -3.1093   -5.8105 H         1 UNK         0.0793 
     97 H97        23.5203   -3.9253   -4.7823 H         1 UNK         0.0793 
     98 H98        22.1267   -3.1116   -4.0697 H         1 UNK         0.0793 
     99 H99        24.3339   -2.5050   -2.8842 H         1 UNK         0.3024 
    100 H100       26.4099    0.0928   -1.5628 H         1 UNK         0.1171 
    101 H101       24.1025    0.3423   -0.6037 H         1 UNK         0.0786 
    102 H102       25.1770   -0.5275    0.4777 H         1 UNK         0.0786 
    103 H103       23.9734   -1.4065   -0.4636 H         1 UNK         0.0786 
    104 H104       26.3498   -2.4460   -0.5520 H         1 UNK         0.2977 
    105 H105       25.9234    1.3602   -4.9859 H         1 UNK         0.3127 
    106 H106       25.6164    4.0394   -5.8444 H         1 UNK         0.0770 
    107 H107       23.5753    1.7557   -5.6967 H         1 UNK         0.0814 
    108 H108       23.1759    3.4621   -5.8539 H         1 UNK         0.0814 
    109 H109       23.9707    2.8822   -4.3993 H         1 UNK         0.0814 
    110 H110       25.6175    1.0281   -7.7114 H         1 UNK         0.2983 
    111 H111       24.6068    2.1966  -10.1737 H         1 UNK         0.0947 
    112 H112       25.1216   -0.0389  -11.1050 H         1 UNK         0.0806 
    113 H113       24.2423   -0.2007   -9.5946 H         1 UNK         0.0806 
    114 H114       25.9816   -0.4866   -9.6395 H         1 UNK         0.0806 
    115 H115       26.4511    3.9115   -9.4513 H         1 UNK         0.3000 
    116 H116       28.2282    5.1183  -10.0220 H         1 UNK         0.0850 
    117 H117       28.8782    5.1611  -12.4079 H         1 UNK         0.0810 
    118 H118       27.1358    5.0034  -12.2691 H         1 UNK         0.0810 
    119 H119       28.1198    3.5997  -12.6822 H         1 UNK         0.0810 
    120 H120       28.9275    3.0951   -8.3458 H         1 UNK         0.3040 
    121 H121       30.6059    2.0111   -7.4255 H         1 UNK         0.0766 
    122 H122       31.7507    4.2024   -7.6626 H         1 UNK         0.0812 
    123 H123       32.4289    3.6958   -9.2099 H         1 UNK         0.0812 
    124 H124       32.8921    2.8706   -7.7297 H         1 UNK         0.0812 
    125 H125       29.3759    0.3462   -9.0814 H         1 UNK         0.3205 
    126 H126       31.1537   -0.9427  -10.9765 H         1 UNK         0.0754 
    127 H127       29.3494   -2.6158  -11.1425 H         1 UNK         0.0769 
    128 H128       28.6642   -1.0013  -11.2209 H         1 UNK         0.0769 
    129 H129       28.5332   -1.9471   -9.7402 H         1 UNK         0.0769 
    130 H130       30.5803   -1.2094   -7.5477 H         1 UNK         0.2981 
    131 H131       31.5775   -2.2121   -5.8861 H         1 UNK         0.0541 
    132 H132       31.2599   -4.4897   -8.6447 H         1 UNK         0.3459 
    133 H133       30.8735   -5.8681   -7.6251 H         1 UNK         0.3459 
    134 H134       33.8081   -3.0262   -7.8053 H         1 UNK         0.0612 
    135 H135       33.6486   -1.4406   -7.1167 H         1 UNK         0.0612 
    136 H136       35.4628   -1.5696   -3.9214 H         1 UNK         0.0624 
    137 H137       34.6196   -0.6543   -5.1432 H         1 UNK         0.0624 
@<TRIPOS>BOND
     1    1    2 1    
     2    1   72 1    
     3    1   73 1    
     4    1   74 1    
     5    2    3 2    
     6    2    4 am   BACKBONE|DICT|INTERRES
     7    4    5 1    
     8    4   75 1    
     9    5    6 1    
    10    5   35 1    
    11    5   76 1    
    12    6    7 1    
    13    6   77 1    
    14    6   78 1    
    15    7    8 1    
    16    8    9 1    
    17    8   79 1    
    18    8   80 1    
    19    9   10 ar   
    20    9   14 ar   
    21   10   11 ar   
    22   10   81 1    
    23   11   12 ar   
    24   11   71 1    
    25   12   13 ar   
    26   12   82 1    
    27   13   14 ar   
    28   13   15 1    
    29   14   83 1    
    30   15   16 1    
    31   15   84 1    
    32   15   85 1    
    33   16   17 1    
    34   17   18 1    
    35   17   86 1    
    36   17   87 1    
    37   18   19 1    
    38   18   37 1    
    39   18   88 1    
    40   19   20 am   BACKBONE|DICT|INTERRES
    41   19   89 1    
    42   20   21 2    
    43   20   22 1    
    44   22   23 1    
    45   22   24 1    
    46   22   90 1    
    47   23   91 1    
    48   23   92 1    
    49   23   93 1    
    50   24   25 am   BACKBONE|DICT|INTERRES
    51   24   94 1    
    52   25   26 2    
    53   25   27 1    
    54   27   28 1    
    55   27   29 1    
    56   27   95 1    
    57   28   96 1    
    58   28   97 1    
    59   28   98 1    
    60   29   30 am   BACKBONE|DICT|INTERRES
    61   29   99 1    
    62   30   31 2    
    63   30   32 1    
    64   32   33 1    
    65   32   34 1    
    66   32  100 1    
    67   33  101 1    
    68   33  102 1    
    69   33  103 1    
    70   34   35 am   BACKBONE|DICT|INTERRES
    71   34  104 1    
    72   35   36 2    
    73   37   38 2    
    74   37   39 am   BACKBONE|DICT|INTERRES
    75   39   40 1    
    76   39  105 1    
    77   40   41 1    
    78   40   42 1    
    79   40  106 1    
    80   41  107 1    
    81   41  108 1    
    82   41  109 1    
    83   42   43 2    
    84   42   44 am   BACKBONE|DICT|INTERRES
    85   44   45 1    
    86   44  110 1    
    87   45   46 1    
    88   45   47 1    
    89   45  111 1    
    90   46  112 1    
    91   46  113 1    
    92   46  114 1    
    93   47   48 2    
    94   47   49 am   BACKBONE|DICT|INTERRES
    95   49   50 1    
    96   49  115 1    
    97   50   51 1    
    98   50   52 1    
    99   50  116 1    
   100   51  117 1    
   101   51  118 1    
   102   51  119 1    
   103   52   53 2    
   104   52   54 am   BACKBONE|DICT|INTERRES
   105   54   55 1    
   106   54  120 1    
   107   55   56 1    
   108   55   57 1    
   109   55  121 1    
   110   56  122 1    
   111   56  123 1    
   112   56  124 1    
   113   57   58 2    
   114   57   59 am   BACKBONE|DICT|INTERRES
   115   59   60 1    
   116   59  125 1    
   117   60   61 1    
   118   60   62 1    
   119   60  126 1    
   120   61  127 1    
   121   61  128 1    
   122   61  129 1    
   123   62   63 2    
   124   62   64 am   BACKBONE|DICT|INTERRES
   125   64   65 1    
   126   64  130 1    
   127   65   66 1    
   128   65   69 1    
   129   65  131 1    
   130   66   67 am   BACKBONE|DICT|INTERRES
   131   66   68 2    
   132   67  132 1    
   133   67  133 1    
   134   69   70 1    
   135   69  134 1    
   136   69  135 1    
   137   70   71 1    
   138   71  136 1    
   139   71  137 1    
@<TRIPOS>SUBSTRUCTURE
     1 UNK         1 GROUP             0       ****    0 ROOT    
