@<TRIPOS>MOLECULE
3R137
137   139    1
SMALL
USER_CHARGES


@<TRIPOS>ATOM
      1 CA         27.9896   -2.1601    2.6977 C.3       0 UNK        -0.2020 
      2 C          27.4428   -2.7013    1.3852 C.2       0 UNK         0.4855 
      3 O          26.4561   -3.4373    1.3962 O.2       0 UNK        -0.5197 
      4 N          28.0755   -2.3323    0.2608 N.am      1 UNK        -0.4892 
      5 CA         27.7423   -2.7536   -1.1129 C.3       1 UNK         0.0835 
      6 C6         27.9260   -4.2778   -1.3601 C.3       12 UNK        -0.0855 
      7 S7         29.6047   -4.8562   -0.9349 S.3       12 UNK        -0.2931 
      8 C8         30.3052   -5.2283   -2.5790 C.3       12 UNK         0.0378 
      9 C9         30.4905   -4.0145   -3.4895 C.ar      12 UNK        -0.0802 
     10 C10        30.3425   -4.1749   -4.8699 C.ar      12 UNK        -0.0944 
     11 C11        30.5805   -3.1096   -5.7415 C.ar      12 UNK        -0.0787 
     12 C12        30.9354   -1.8615   -5.2239 C.ar      12 UNK        -0.0862 
     13 C13        31.0716   -1.6745   -3.8440 C.ar      12 UNK        -0.0733 
     14 C14        30.8687   -2.7624   -2.9878 C.ar      12 UNK        -0.0832 
     15 C15        31.4848   -0.3254   -3.2559 C.3       12 UNK         0.0240 
     16 S16        30.7011    1.1254   -4.0431 S.3       12 UNK        -0.2522 
     17 C17        28.9201    0.7594   -3.8654 C.3       12 UNK        -0.0967 
     18 CA         28.2597    0.5247   -5.2507 C.3       5 UNK         0.0660 
     19 N          27.3453   -0.6188   -5.2472 N.am      5 UNK        -0.4015 
     20 C          27.0685   -1.3601   -6.3295 C.2       4 UNK         0.4946 
     21 O          27.5478   -1.1598   -7.4452 O.2       4 UNK        -0.5353 
     22 CA         26.0552   -2.5001   -6.1413 C.3       4 UNK         0.0277 
     23 CB         26.7408   -3.7404   -5.5462 C.3       4 UNK        -0.1981 
     24 N          24.9182   -2.1055   -5.3050 N.am      4 UNK        -0.4209 
     25 C          23.9985   -1.2032   -5.6819 C.2       3 UNK         0.4942 
     26 O          24.0087   -0.6365   -6.7736 O.2       3 UNK        -0.5208 
     27 CA         22.9016   -0.8321   -4.6682 C.3       3 UNK         0.0250 
     28 CB         21.6829   -1.7522   -4.8407 C.3       3 UNK        -0.1990 
     29 N          23.3322   -0.8555   -3.2686 N.am      3 UNK        -0.4232 
     30 C          24.3752   -0.1912   -2.7512 C.2       2 UNK         0.4993 
     31 O          25.1334    0.5218   -3.4112 O.2       2 UNK        -0.5286 
     32 CA         24.6664   -0.3976   -1.2543 C.3       2 UNK         0.0209 
     33 CB         23.5483   -1.1385   -0.4849 C.3       2 UNK        -0.1931 
     34 N          25.9505   -1.0747   -1.0412 N.am      2 UNK        -0.4546 
     35 C          26.3596   -2.2385   -1.5743 C.2       1 UNK         0.5154 
     36 O          25.7053   -2.8814   -2.3994 O.2       1 UNK        -0.5181 
     37 C          27.5820    1.7938   -5.8054 C.2       5 UNK         0.5014 
     38 O          28.2612    2.6322   -6.3965 O.2       5 UNK        -0.5248 
     39 N          26.2563    1.9129   -5.6370 N.am      6 UNK        -0.4434 
     40 CA         25.4406    2.9590   -6.2577 C.3       6 UNK         0.0363 
     41 CB         24.0296    2.9488   -5.6512 C.3       6 UNK        -0.1936 
     42 C          25.3731    2.8204   -7.7895 C.2       6 UNK         0.5081 
     43 O          25.3708    3.8378   -8.4831 O.2       6 UNK        -0.5248 
     44 N          25.3301    1.5756   -8.2901 N.am      7 UNK        -0.4718 
     45 CA         25.3568    1.2533   -9.7188 C.3       7 UNK         0.0273 
     46 CB         25.0176   -0.2311   -9.9290 C.3       7 UNK        -0.1935 
     47 C          26.6957    1.6088  -10.3861 C.2       7 UNK         0.5018 
     48 O          26.6854    2.1812  -11.4772 O.2       7 UNK        -0.5186 
     49 N          27.8142    1.2910   -9.7217 N.am      8 UNK        -0.4240 
     50 CA         29.1615    1.6479  -10.1564 C.3       8 UNK         0.0235 
     51 CB         29.6498    0.6835  -11.2529 C.3       8 UNK        -0.2000 
     52 C          30.0906    1.6357   -8.9401 C.2       8 UNK         0.4941 
     53 O          30.2281    0.5929   -8.2959 O.2       8 UNK        -0.5273 
     54 N          30.7150    2.7854   -8.6494 N.am      9 UNK        -0.4262 
     55 CA         31.6366    2.9758   -7.5270 C.3       9 UNK         0.0264 
     56 CB         32.0244    4.4604   -7.4243 C.3       9 UNK        -0.1955 
     57 C          32.8773    2.0818   -7.6765 C.2       9 UNK         0.5031 
     58 O          33.6474    2.2735   -8.6196 O.2       9 UNK        -0.5390 
     59 N          33.0083    1.1042   -6.7687 N.am      10 UNK        -0.4204 
     60 CA         33.9834    0.0043   -6.7908 C.3       10 UNK         0.0237 
     61 CB         35.4230    0.5310   -6.6058 C.3       10 UNK        -0.1985 
     62 C          33.8330   -0.9314   -8.0135 C.2       10 UNK         0.4970 
     63 O          34.8155   -1.5462   -8.4329 O.2       10 UNK        -0.4914 
     64 N          32.6022   -1.0441   -8.5326 N.am      11 UNK        -0.4285 
     65 CA         32.1851   -1.8802   -9.6686 C.3       11 UNK         0.1007 
     66 C          32.7157   -1.3721  -11.0432 C.2       11 UNK         0.5703 
     67 N          32.4656   -2.1040  -12.1217 N.am      11 UNK        -0.7361 
     68 O          33.3145   -0.3053  -11.1625 O.2       11 UNK        -0.4986 
     69 C69        32.4231   -3.4086   -9.4565 C.3       12 UNK        -0.0947 
     70 S70        32.0639   -4.1077   -7.8045 S.3       12 UNK        -0.2240 
     71 C71        30.5158   -3.3239   -7.2446 C.3       12 UNK         0.0194 
     72 H72        28.2845   -2.9835    3.3477 H         1 UNK         0.0906 
     73 H73        28.8589   -1.5203    2.5470 H         1 UNK         0.0906 
     74 H74        27.2249   -1.5780    3.2113 H         1 UNK         0.0906 
     75 H75        28.8852   -1.7320    0.3383 H         1 UNK         0.3140 
     76 H76        28.4493   -2.2370   -1.7613 H         1 UNK         0.1085 
     77 H77        27.7231   -4.5276   -2.4029 H         1 UNK         0.0836 
     78 H78        27.2068   -4.8510   -0.7730 H         1 UNK         0.0836 
     79 H79        29.6707   -5.9733   -3.0621 H         1 UNK         0.0731 
     80 H80        31.2785   -5.7002   -2.4392 H         1 UNK         0.0731 
     81 H81        30.0822   -5.1433   -5.2753 H         1 UNK         0.1312 
     82 H82        31.1174   -1.0409   -5.9021 H         1 UNK         0.1406 
     83 H83        31.0152   -2.6361   -1.9240 H         1 UNK         0.1631 
     84 H84        32.5674   -0.2262   -3.3439 H         1 UNK         0.0717 
     85 H85        31.2597   -0.2909   -2.1887 H         1 UNK         0.0717 
     86 H86        28.8107   -0.1200   -3.2298 H         1 UNK         0.0934 
     87 H87        28.4407    1.5704   -3.3129 H         1 UNK         0.0934 
     88 H88        29.0477    0.2777   -5.9643 H         1 UNK         0.0739 
     89 H89        26.8349   -0.7939   -4.3932 H         1 UNK         0.3093 
     90 H90        25.6681   -2.7672   -7.1273 H         1 UNK         0.0818 
     91 H91        27.2116   -3.5237   -4.5872 H         1 UNK         0.0819 
     92 H92        26.0332   -4.5560   -5.3973 H         1 UNK         0.0819 
     93 H93        27.5216   -4.1069   -6.2130 H         1 UNK         0.0819 
     94 H94        24.8727   -2.4976   -4.3703 H         1 UNK         0.3041 
     95 H95        22.5850    0.1883   -4.8870 H         1 UNK         0.0784 
     96 H96        21.3248   -1.7362   -5.8713 H         1 UNK         0.0793 
     97 H97        21.9203   -2.7880   -4.5943 H         1 UNK         0.0793 
     98 H98        20.8530   -1.4369   -4.2078 H         1 UNK         0.0793 
     99 H99        22.7990   -1.4449   -2.6460 H         1 UNK         0.3024 
    100 H100       24.7585    0.6026   -0.8274 H         1 UNK         0.1171 
    101 H101       23.7734   -1.1769    0.5812 H         1 UNK         0.0786 
    102 H102       22.5891   -0.6286   -0.5867 H         1 UNK         0.0786 
    103 H103       23.4224   -2.1674   -0.8248 H         1 UNK         0.0786 
    104 H104       26.5797   -0.6200   -0.3944 H         1 UNK         0.2977 
    105 H105       25.7756    1.2482   -5.0354 H         1 UNK         0.3127 
    106 H106       25.9025    3.9218   -6.0282 H         1 UNK         0.0770 
    107 H107       23.4878    2.0414   -5.9148 H         1 UNK         0.0814 
    108 H108       24.0596    3.0221   -4.5638 H         1 UNK         0.0814 
    109 H109       23.4445    3.7925   -6.0191 H         1 UNK         0.0814 
    110 H110       25.2473    0.7932   -7.6495 H         1 UNK         0.2983 
    111 H111       24.5807    1.8473  -10.2065 H         1 UNK         0.0947 
    112 H112       25.0289   -0.4884  -10.9889 H         1 UNK         0.0806 
    113 H113       24.0233   -0.4671   -9.5495 H         1 UNK         0.0806 
    114 H114       25.7303   -0.8854   -9.4263 H         1 UNK         0.0806 
    115 H115       27.7539    0.8023   -8.8345 H         1 UNK         0.3000 
    116 H116       29.1414    2.6596  -10.5678 H         1 UNK         0.0850 
    117 H117       30.6850    0.8933  -11.5244 H         1 UNK         0.0810 
    118 H118       29.0535    0.7777  -12.1604 H         1 UNK         0.0810 
    119 H119       29.5942   -0.3547  -10.9263 H         1 UNK         0.0810 
    120 H120       30.5640    3.5869   -9.2438 H         1 UNK         0.3040 
    121 H121       31.1034    2.7039   -6.6138 H         1 UNK         0.0766 
    122 H122       32.7051    4.6268   -6.5884 H         1 UNK         0.0812 
    123 H123       31.1487    5.0880   -7.2576 H         1 UNK         0.0812 
    124 H124       32.5250    4.8124   -8.3273 H         1 UNK         0.0812 
    125 H125       32.3127    1.0550   -6.0353 H         1 UNK         0.3205 
    126 H126       33.7531   -0.6140   -5.9218 H         1 UNK         0.0754 
    127 H127       36.1248   -0.2913   -6.4610 H         1 UNK         0.0769 
    128 H128       35.4998    1.1776   -5.7317 H         1 UNK         0.0769 
    129 H129       35.7625    1.0968   -7.4738 H         1 UNK         0.0769 
    130 H130       31.8680   -0.4359   -8.1827 H         1 UNK         0.2981 
    131 H131       31.1089   -1.7273   -9.7326 H         1 UNK         0.0541 
    132 H132       32.7917   -1.7770  -13.0176 H         1 UNK         0.3459 
    133 H133       31.9616   -2.9742  -12.0608 H         1 UNK         0.3459 
    134 H134       33.4650   -3.6510   -9.6729 H         1 UNK         0.0612 
    135 H135       31.8320   -3.9782  -10.1749 H         1 UNK         0.0612 
    136 H136       30.3297   -2.3740   -7.7424 H         1 UNK         0.0624 
    137 H137       29.6746   -3.9694   -7.4995 H         1 UNK         0.0624 
@<TRIPOS>BOND
     1    1    2 1    
     2    1   72 1    
     3    1   73 1    
     4    1   74 1    
     5    2    3 2    
     6    2    4 am   BACKBONE|DICT|INTERRES
     7    4    5 1    
     8    4   75 1    
     9    5    6 1    
    10    5   35 1    
    11    5   76 1    
    12    6    7 1    
    13    6   77 1    
    14    6   78 1    
    15    7    8 1    
    16    8    9 1    
    17    8   79 1    
    18    8   80 1    
    19    9   10 ar   
    20    9   14 ar   
    21   10   11 ar   
    22   10   81 1    
    23   11   12 ar   
    24   11   71 1    
    25   12   13 ar   
    26   12   82 1    
    27   13   14 ar   
    28   13   15 1    
    29   14   83 1    
    30   15   16 1    
    31   15   84 1    
    32   15   85 1    
    33   16   17 1    
    34   17   18 1    
    35   17   86 1    
    36   17   87 1    
    37   18   19 1    
    38   18   37 1    
    39   18   88 1    
    40   19   20 am   BACKBONE|DICT|INTERRES
    41   19   89 1    
    42   20   21 2    
    43   20   22 1    
    44   22   23 1    
    45   22   24 1    
    46   22   90 1    
    47   23   91 1    
    48   23   92 1    
    49   23   93 1    
    50   24   25 am   BACKBONE|DICT|INTERRES
    51   24   94 1    
    52   25   26 2    
    53   25   27 1    
    54   27   28 1    
    55   27   29 1    
    56   27   95 1    
    57   28   96 1    
    58   28   97 1    
    59   28   98 1    
    60   29   30 am   BACKBONE|DICT|INTERRES
    61   29   99 1    
    62   30   31 2    
    63   30   32 1    
    64   32   33 1    
    65   32   34 1    
    66   32  100 1    
    67   33  101 1    
    68   33  102 1    
    69   33  103 1    
    70   34   35 am   BACKBONE|DICT|INTERRES
    71   34  104 1    
    72   35   36 2    
    73   37   38 2    
    74   37   39 am   BACKBONE|DICT|INTERRES
    75   39   40 1    
    76   39  105 1    
    77   40   41 1    
    78   40   42 1    
    79   40  106 1    
    80   41  107 1    
    81   41  108 1    
    82   41  109 1    
    83   42   43 2    
    84   42   44 am   BACKBONE|DICT|INTERRES
    85   44   45 1    
    86   44  110 1    
    87   45   46 1    
    88   45   47 1    
    89   45  111 1    
    90   46  112 1    
    91   46  113 1    
    92   46  114 1    
    93   47   48 2    
    94   47   49 am   BACKBONE|DICT|INTERRES
    95   49   50 1    
    96   49  115 1    
    97   50   51 1    
    98   50   52 1    
    99   50  116 1    
   100   51  117 1    
   101   51  118 1    
   102   51  119 1    
   103   52   53 2    
   104   52   54 am   BACKBONE|DICT|INTERRES
   105   54   55 1    
   106   54  120 1    
   107   55   56 1    
   108   55   57 1    
   109   55  121 1    
   110   56  122 1    
   111   56  123 1    
   112   56  124 1    
   113   57   58 2    
   114   57   59 am   BACKBONE|DICT|INTERRES
   115   59   60 1    
   116   59  125 1    
   117   60   61 1    
   118   60   62 1    
   119   60  126 1    
   120   61  127 1    
   121   61  128 1    
   122   61  129 1    
   123   62   63 2    
   124   62   64 am   BACKBONE|DICT|INTERRES
   125   64   65 1    
   126   64  130 1    
   127   65   66 1    
   128   65   69 1    
   129   65  131 1    
   130   66   67 am   BACKBONE|DICT|INTERRES
   131   66   68 2    
   132   67  132 1    
   133   67  133 1    
   134   69   70 1    
   135   69  134 1    
   136   69  135 1    
   137   70   71 1    
   138   71  136 1    
   139   71  137 1    
@<TRIPOS>SUBSTRUCTURE
     1 UNK         1 GROUP             0       ****    0 ROOT    
