@<TRIPOS>MOLECULE
3R137
137   139    1
SMALL
USER_CHARGES


@<TRIPOS>ATOM
      1 CA         31.8512   -1.7391    2.2988 C.3       0 UNK        -0.2020 
      2 C          31.4594   -1.5366    0.8428 C.2       0 UNK         0.4855 
      3 O          32.2510   -1.0056    0.0633 O.2       0 UNK        -0.5197 
      4 N          30.2449   -1.9498    0.4726 N.am      1 UNK        -0.4892 
      5 CA         29.6840   -1.8426   -0.8729 C.3       1 UNK         0.0835 
      6 C6         30.2515   -2.9084   -1.8511 C.3       12 UNK        -0.0855 
      7 S7         30.0619   -4.6451   -1.2988 S.3       12 UNK        -0.2931 
      8 C8         31.3131   -5.5008   -2.3190 C.3       12 UNK         0.0378 
      9 C9         31.1639   -5.1724   -3.7985 C.ar      12 UNK        -0.0802 
     10 C10        32.1886   -4.5093   -4.4810 C.ar      12 UNK        -0.0944 
     11 C11        32.0052   -4.0943   -5.8040 C.ar      12 UNK        -0.0787 
     12 C12        30.8024   -4.3785   -6.4550 C.ar      12 UNK        -0.0862 
     13 C13        29.7748   -5.0451   -5.7834 C.ar      12 UNK        -0.0733 
     14 C14        29.9701   -5.4633   -4.4648 C.ar      12 UNK        -0.0832 
     15 C15        28.4231   -5.2378   -6.4525 C.3       12 UNK         0.0240 
     16 S16        27.1408   -4.2118   -5.6606 S.3       12 UNK        -0.2522 
     17 C17        27.7737   -2.5147   -5.9131 C.3       12 UNK        -0.0967 
     18 CA         26.9090   -1.7240   -6.9181 C.3       5 UNK         0.0660 
     19 N          25.5222   -1.5926   -6.4700 N.am      5 UNK        -0.4015 
     20 C          24.4842   -1.2957   -7.2618 C.2       4 UNK         0.4946 
     21 O          24.5759   -1.1191   -8.4764 O.2       4 UNK        -0.5353 
     22 CA         23.1154   -1.1523   -6.5744 C.3       4 UNK         0.0277 
     23 CB         22.4324   -2.5230   -6.4406 C.3       4 UNK        -0.1981 
     24 N          23.2181   -0.5234   -5.2544 N.am      4 UNK        -0.4209 
     25 C          23.5230    0.7678   -5.0608 C.2       3 UNK         0.4942 
     26 O          23.6583    1.5811   -5.9747 O.2       3 UNK        -0.5208 
     27 CA         23.7433    1.2245   -3.6067 C.3       3 UNK         0.0250 
     28 CB         22.4242    1.7221   -2.9942 C.3       3 UNK        -0.1990 
     29 N          24.3333    0.1999   -2.7339 N.am      3 UNK        -0.4232 
     30 C          25.5426   -0.3500   -2.9113 C.2       2 UNK         0.4993 
     31 O          26.2708   -0.1004   -3.8726 O.2       2 UNK        -0.5286 
     32 CA         25.9872   -1.3915   -1.8812 C.3       2 UNK         0.0209 
     33 CB         25.4359   -2.7823   -2.2475 C.3       2 UNK        -0.1931 
     34 N          27.4495   -1.4332   -1.8181 N.am      2 UNK        -0.4546 
     35 C          28.1479   -1.8788   -0.7666 C.2       1 UNK         0.5154 
     36 O          27.6221   -2.3024    0.2690 O.2       1 UNK        -0.5181 
     37 C          27.5249   -0.3473   -7.2268 C.2       5 UNK         0.5014 
     38 O          28.2545   -0.2279   -8.2103 O.2       5 UNK        -0.5248 
     39 N          27.1707    0.6748   -6.4328 N.am      6 UNK        -0.4434 
     40 CA         27.5536    2.0815   -6.6073 C.3       6 UNK         0.0363 
     41 CB         26.9571    2.9111   -5.4584 C.3       6 UNK        -0.1936 
     42 C          27.1442    2.6956   -7.9607 C.2       6 UNK         0.5081 
     43 O          27.7578    3.6714   -8.3931 O.2       6 UNK        -0.5248 
     44 N          26.1160    2.1281   -8.6048 N.am      7 UNK        -0.4718 
     45 CA         25.6749    2.5020   -9.9484 C.3       7 UNK         0.0273 
     46 CB         24.1917    2.1283  -10.1035 C.3       7 UNK        -0.1935 
     47 C          26.5138    1.8478  -11.0634 C.2       7 UNK         0.5018 
     48 O          26.4587    2.3246  -12.1980 O.2       7 UNK        -0.5186 
     49 N          27.2450    0.7694  -10.7468 N.am      8 UNK        -0.4240 
     50 CA         28.0174   -0.0277  -11.7025 C.3       8 UNK         0.0235 
     51 CB         27.7190   -1.5179  -11.4641 C.3       8 UNK        -0.2000 
     52 C          29.5282    0.2306  -11.5994 C.2       8 UNK         0.4941 
     53 O          30.2091    0.2008  -12.6257 O.2       8 UNK        -0.5273 
     54 N          30.0326    0.4621  -10.3828 N.am      9 UNK        -0.4262 
     55 CA         31.4464    0.6675  -10.0733 C.3       9 UNK         0.0264 
     56 CB         32.0928   -0.6978   -9.7657 C.3       9 UNK        -0.1955 
     57 C          31.5700    1.6150   -8.8747 C.2       9 UNK         0.5031 
     58 O          30.5636    1.9424   -8.2438 O.2       9 UNK        -0.5390 
     59 N          32.8051    2.0026   -8.5290 N.am      10 UNK        -0.4204 
     60 CA         33.1412    2.7957   -7.3368 C.3       10 UNK         0.0237 
     61 CB         34.5281    3.4358   -7.5377 C.3       10 UNK        -0.1985 
     62 C          33.0504    1.9641   -6.0360 C.2       10 UNK         0.4970 
     63 O          34.0149    1.8962   -5.2721 O.2       10 UNK        -0.4914 
     64 N          31.8930    1.3300   -5.8353 N.am      11 UNK        -0.4285 
     65 CA         31.5743    0.3601   -4.7819 C.3       11 UNK         0.1007 
     66 C          30.2279    0.7067   -4.0851 C.2       11 UNK         0.5703 
     67 N          29.9003    1.9821   -3.9213 N.am      11 UNK        -0.7361 
     68 O          29.4729   -0.1726   -3.6778 O.2       11 UNK        -0.4986 
     69 C69        31.6274   -1.0922   -5.3297 C.3       12 UNK        -0.0947 
     70 S70        33.3293   -1.6419   -5.7061 S.3       12 UNK        -0.2240 
     71 C71        33.0672   -3.2609   -6.5075 C.3       12 UNK         0.0194 
     72 H72        32.7417   -2.3638    2.3637 H         1 UNK         0.0906 
     73 H73        32.0728   -0.7796    2.7653 H         1 UNK         0.0906 
     74 H74        31.0580   -2.2199    2.8714 H         1 UNK         0.0906 
     75 H75        29.5967   -2.3487    1.1419 H         1 UNK         0.3140 
     76 H76        29.9422   -0.8520   -1.2515 H         1 UNK         0.1085 
     77 H77        29.7844   -2.8071   -2.8326 H         1 UNK         0.0836 
     78 H78        31.3125   -2.7132   -2.0138 H         1 UNK         0.0836 
     79 H79        32.3064   -5.2287   -1.9584 H         1 UNK         0.0731 
     80 H80        31.2159   -6.5779   -2.1766 H         1 UNK         0.0731 
     81 H81        33.1074   -4.2592   -3.9682 H         1 UNK         0.1312 
     82 H82        30.6456   -4.0331   -7.4679 H         1 UNK         0.1406 
     83 H83        29.1644   -5.9514   -3.9329 H         1 UNK         0.1631 
     84 H84        28.1323   -6.2870   -6.3865 H         1 UNK         0.0717 
     85 H85        28.4707   -4.9949   -7.5152 H         1 UNK         0.0717 
     86 H86        27.8028   -2.0140   -4.9439 H         1 UNK         0.0934 
     87 H87        28.8071   -2.5470   -6.2564 H         1 UNK         0.0934 
     88 H88        26.9021   -2.2822   -7.8573 H         1 UNK         0.0739 
     89 H89        25.3698   -1.6822   -5.4768 H         1 UNK         0.3093 
     90 H90        22.4906   -0.5190   -7.2083 H         1 UNK         0.0818 
     91 H91        21.4317   -2.4283   -6.0185 H         1 UNK         0.0819 
     92 H92        22.3266   -3.0009   -7.4156 H         1 UNK         0.0819 
     93 H93        23.0029   -3.2023   -5.8058 H         1 UNK         0.0819 
     94 H94        23.0956   -1.1164   -4.4466 H         1 UNK         0.3041 
     95 H95        24.4403    2.0647   -3.6366 H         1 UNK         0.0784 
     96 H96        21.9769    2.5021   -3.6124 H         1 UNK         0.0793 
     97 H97        21.6916    0.9193   -2.9022 H         1 UNK         0.0793 
     98 H98        22.5821    2.1493   -2.0036 H         1 UNK         0.0793 
     99 H99        23.7867   -0.0727   -1.9291 H         1 UNK         0.3024 
    100 H100       25.5990   -1.0909   -0.9051 H         1 UNK         0.1171 
    101 H101       24.3472   -2.7741   -2.3103 H         1 UNK         0.0786 
    102 H102       25.7078   -3.5278   -1.5001 H         1 UNK         0.0786 
    103 H103       25.8182   -3.1238   -3.2093 H         1 UNK         0.0786 
    104 H104       27.9324   -1.0312   -2.6199 H         1 UNK         0.2977 
    105 H105       26.6491    0.4556   -5.5856 H         1 UNK         0.3127 
    106 H106       28.6402    2.1292   -6.5357 H         1 UNK         0.0770 
    107 H107       25.8737    2.9923   -5.5429 H         1 UNK         0.0814 
    108 H108       27.3592    3.9248   -5.4644 H         1 UNK         0.0814 
    109 H109       27.1817    2.4760   -4.4854 H         1 UNK         0.0814 
    110 H110       25.6429    1.3495   -8.1661 H         1 UNK         0.2983 
    111 H111       25.7655    3.5846  -10.0634 H         1 UNK         0.0947 
    112 H112       23.8086    2.4459  -11.0742 H         1 UNK         0.0806 
    113 H113       23.5788    2.6086   -9.3402 H         1 UNK         0.0806 
    114 H114       24.0367    1.0514  -10.0291 H         1 UNK         0.0806 
    115 H115       27.2940    0.4769   -9.7760 H         1 UNK         0.3000 
    116 H116       27.7132    0.2126  -12.7235 H         1 UNK         0.0850 
    117 H117       28.2584   -2.1430  -12.1770 H         1 UNK         0.0810 
    118 H118       26.6567   -1.7324  -11.5827 H         1 UNK         0.0810 
    119 H119       28.0137   -1.8358  -10.4631 H         1 UNK         0.0810 
    120 H120       29.4150    0.4852   -9.5728 H         1 UNK         0.3040 
    121 H121       31.9492    1.1344  -10.9228 H         1 UNK         0.0766 
    122 H122       33.1572   -0.6003   -9.5503 H         1 UNK         0.0812 
    123 H123       31.9988   -1.3799  -10.6108 H         1 UNK         0.0812 
    124 H124       31.6269   -1.1731   -8.9010 H         1 UNK         0.0812 
    125 H125       33.5858    1.6667   -9.0747 H         1 UNK         0.3205 
    126 H126       32.4146    3.6061   -7.2462 H         1 UNK         0.0754 
    127 H127       34.7898    4.0759   -6.6940 H         1 UNK         0.0769 
    128 H128       34.5520    4.0588   -8.4321 H         1 UNK         0.0769 
    129 H129       35.3113    2.6823   -7.6315 H         1 UNK         0.0769 
    130 H130       31.1627    1.4786   -6.5282 H         1 UNK         0.2981 
    131 H131       32.3145    0.4394   -3.9842 H         1 UNK         0.0541 
    132 H132       30.5155    2.7161   -4.2327 H         1 UNK         0.3459 
    133 H133       29.0352    2.2053   -3.4587 H         1 UNK         0.3459 
    134 H134       31.0076   -1.1905   -6.2227 H         1 UNK         0.0612 
    135 H135       31.2239   -1.7877   -4.5934 H         1 UNK         0.0612 
    136 H136       34.0101   -3.8090   -6.5180 H         1 UNK         0.0624 
    137 H137       32.7978   -3.0909   -7.5509 H         1 UNK         0.0624 
@<TRIPOS>BOND
     1    1    2 1    
     2    1   72 1    
     3    1   73 1    
     4    1   74 1    
     5    2    3 2    
     6    2    4 am   BACKBONE|DICT|INTERRES
     7    4    5 1    
     8    4   75 1    
     9    5    6 1    
    10    5   35 1    
    11    5   76 1    
    12    6    7 1    
    13    6   77 1    
    14    6   78 1    
    15    7    8 1    
    16    8    9 1    
    17    8   79 1    
    18    8   80 1    
    19    9   10 ar   
    20    9   14 ar   
    21   10   11 ar   
    22   10   81 1    
    23   11   12 ar   
    24   11   71 1    
    25   12   13 ar   
    26   12   82 1    
    27   13   14 ar   
    28   13   15 1    
    29   14   83 1    
    30   15   16 1    
    31   15   84 1    
    32   15   85 1    
    33   16   17 1    
    34   17   18 1    
    35   17   86 1    
    36   17   87 1    
    37   18   19 1    
    38   18   37 1    
    39   18   88 1    
    40   19   20 am   BACKBONE|DICT|INTERRES
    41   19   89 1    
    42   20   21 2    
    43   20   22 1    
    44   22   23 1    
    45   22   24 1    
    46   22   90 1    
    47   23   91 1    
    48   23   92 1    
    49   23   93 1    
    50   24   25 am   BACKBONE|DICT|INTERRES
    51   24   94 1    
    52   25   26 2    
    53   25   27 1    
    54   27   28 1    
    55   27   29 1    
    56   27   95 1    
    57   28   96 1    
    58   28   97 1    
    59   28   98 1    
    60   29   30 am   BACKBONE|DICT|INTERRES
    61   29   99 1    
    62   30   31 2    
    63   30   32 1    
    64   32   33 1    
    65   32   34 1    
    66   32  100 1    
    67   33  101 1    
    68   33  102 1    
    69   33  103 1    
    70   34   35 am   BACKBONE|DICT|INTERRES
    71   34  104 1    
    72   35   36 2    
    73   37   38 2    
    74   37   39 am   BACKBONE|DICT|INTERRES
    75   39   40 1    
    76   39  105 1    
    77   40   41 1    
    78   40   42 1    
    79   40  106 1    
    80   41  107 1    
    81   41  108 1    
    82   41  109 1    
    83   42   43 2    
    84   42   44 am   BACKBONE|DICT|INTERRES
    85   44   45 1    
    86   44  110 1    
    87   45   46 1    
    88   45   47 1    
    89   45  111 1    
    90   46  112 1    
    91   46  113 1    
    92   46  114 1    
    93   47   48 2    
    94   47   49 am   BACKBONE|DICT|INTERRES
    95   49   50 1    
    96   49  115 1    
    97   50   51 1    
    98   50   52 1    
    99   50  116 1    
   100   51  117 1    
   101   51  118 1    
   102   51  119 1    
   103   52   53 2    
   104   52   54 am   BACKBONE|DICT|INTERRES
   105   54   55 1    
   106   54  120 1    
   107   55   56 1    
   108   55   57 1    
   109   55  121 1    
   110   56  122 1    
   111   56  123 1    
   112   56  124 1    
   113   57   58 2    
   114   57   59 am   BACKBONE|DICT|INTERRES
   115   59   60 1    
   116   59  125 1    
   117   60   61 1    
   118   60   62 1    
   119   60  126 1    
   120   61  127 1    
   121   61  128 1    
   122   61  129 1    
   123   62   63 2    
   124   62   64 am   BACKBONE|DICT|INTERRES
   125   64   65 1    
   126   64  130 1    
   127   65   66 1    
   128   65   69 1    
   129   65  131 1    
   130   66   67 am   BACKBONE|DICT|INTERRES
   131   66   68 2    
   132   67  132 1    
   133   67  133 1    
   134   69   70 1    
   135   69  134 1    
   136   69  135 1    
   137   70   71 1    
   138   71  136 1    
   139   71  137 1    
@<TRIPOS>SUBSTRUCTURE
     1 UNK         1 GROUP             0       ****    0 ROOT    
