@<TRIPOS>MOLECULE
3R137
137   139    1
SMALL
USER_CHARGES


@<TRIPOS>ATOM
      1 CA         27.3974   -2.4361   -5.4856 C.3       0 UNK        -0.2020 
      2 C          26.8185   -3.5427   -4.6170 C.2       0 UNK         0.4855 
      3 O          25.8428   -4.1803   -5.0157 O.2       0 UNK        -0.5197 
      4 N          27.4155   -3.7826   -3.4419 N.am      1 UNK        -0.4892 
      5 CA         27.0195   -4.8102   -2.4713 C.3       1 UNK         0.0835 
      6 C6         28.0460   -4.9360   -1.3191 C.3       12 UNK        -0.0855 
      7 S7         29.6613   -5.5447   -1.9043 S.3       12 UNK        -0.2931 
      8 C8         30.7919   -4.2426   -1.3173 C.3       12 UNK         0.0378 
      9 C9         30.7467   -2.9825   -2.1731 C.ar      12 UNK        -0.0802 
     10 C10        31.0957   -3.0424   -3.5253 C.ar      12 UNK        -0.0944 
     11 C11        31.1449   -1.8805   -4.2993 C.ar      12 UNK        -0.0787 
     12 C12        30.8437   -0.6472   -3.7136 C.ar      12 UNK        -0.0862 
     13 C13        30.4976   -0.5714   -2.3605 C.ar      12 UNK        -0.0733 
     14 C14        30.4359   -1.7447   -1.5995 C.ar      12 UNK        -0.0832 
     15 C15        30.2652    0.7803   -1.6973 C.3       12 UNK         0.0240 
     16 S16        28.5323    1.3261   -1.8008 S.3       12 UNK        -0.2522 
     17 C17        28.4569    2.0741   -3.4661 C.3       12 UNK        -0.0967 
     18 CA         27.5522    1.2622   -4.4262 C.3       5 UNK         0.0660 
     19 N          26.1698    1.1154   -3.9464 N.am      5 UNK        -0.4015 
     20 C          25.2443    2.0528   -3.7060 C.2       4 UNK         0.4946 
     21 O          25.4049    3.2486   -3.9610 O.2       4 UNK        -0.5353 
     22 CA         23.9155    1.5721   -3.0786 C.3       4 UNK         0.0277 
     23 CB         22.8659    2.6970   -2.9937 C.3       4 UNK        -0.1981 
     24 N          23.3102    0.4136   -3.7510 N.am      4 UNK        -0.4209 
     25 C          23.7642   -0.8453   -3.7031 C.2       3 UNK         0.4942 
     26 O          24.8228   -1.1634   -3.1563 O.2       3 UNK        -0.5208 
     27 CA         22.9247   -1.9105   -4.4237 C.3       3 UNK         0.0250 
     28 CB         23.2401   -1.9250   -5.9271 C.3       3 UNK        -0.1990 
     29 N          23.2102   -3.2311   -3.8644 N.am      3 UNK        -0.4232 
     30 C          22.6177   -3.7314   -2.7710 C.2       2 UNK         0.4993 
     31 O          21.6624   -3.1975   -2.2050 O.2       2 UNK        -0.5286 
     32 CA         23.1823   -5.0458   -2.2030 C.3       2 UNK         0.0209 
     33 CB         22.3876   -6.2496   -2.7353 C.3       2 UNK        -0.1931 
     34 N          24.6032   -5.2317   -2.5076 N.am      2 UNK        -0.4546 
     35 C          25.6002   -4.5538   -1.9216 C.2       1 UNK         0.5154 
     36 O          25.4349   -3.7597   -0.9932 O.2       1 UNK        -0.5181 
     37 C          27.6690    1.7818   -5.8747 C.2       5 UNK         0.5014 
     38 O          28.3961    1.1841   -6.6671 O.2       5 UNK        -0.5248 
     39 N          26.9485    2.8612   -6.2063 N.am      6 UNK        -0.4434 
     40 CA         26.9776    3.5827   -7.4848 C.3       6 UNK         0.0363 
     41 CB         26.0716    4.8195   -7.3805 C.3       6 UNK        -0.1936 
     42 C          26.5986    2.7441   -8.7190 C.2       6 UNK         0.5081 
     43 O          26.9890    3.1021   -9.8302 O.2       6 UNK        -0.5248 
     44 N          25.8819    1.6306   -8.5102 N.am      7 UNK        -0.4718 
     45 CA         25.5742    0.6253   -9.5330 C.3       7 UNK         0.0273 
     46 CB         24.5838   -0.3945   -8.9511 C.3       7 UNK        -0.1935 
     47 C          26.8201   -0.0968  -10.0844 C.2       7 UNK         0.5018 
     48 O          26.7632   -0.6214  -11.1971 O.2       7 UNK        -0.5186 
     49 N          27.9151   -0.1001   -9.3139 N.am      8 UNK        -0.4240 
     50 CA         29.2227   -0.6164   -9.7010 C.3       8 UNK         0.0235 
     51 CB         29.4269   -2.0128   -9.0820 C.3       8 UNK        -0.2000 
     52 C          30.2865    0.4014   -9.2667 C.2       8 UNK         0.4941 
     53 O          31.2054    0.0521   -8.5274 O.2       8 UNK        -0.5273 
     54 N          30.1229    1.6611   -9.6985 N.am      9 UNK        -0.4262 
     55 CA         31.0096    2.7799   -9.3656 C.3       9 UNK         0.0264 
     56 CB         30.4996    4.0606  -10.0466 C.3       9 UNK        -0.1955 
     57 C          32.4744    2.5026   -9.7528 C.2       9 UNK         0.5031 
     58 O          32.7383    2.1448  -10.9037 O.2       9 UNK        -0.5390 
     59 N          33.3792    2.6737   -8.7779 N.am      10 UNK        -0.4204 
     60 CA         34.8199    2.4003   -8.8468 C.3       10 UNK         0.0237 
     61 CB         35.5206    3.3646   -9.8297 C.3       10 UNK        -0.1985 
     62 C          35.1415    0.9145   -9.1168 C.2       10 UNK         0.4970 
     63 O          35.9844    0.6128   -9.9644 O.2       10 UNK        -0.4914 
     64 N          34.4768    0.0131   -8.3787 N.am      11 UNK        -0.4285 
     65 CA         34.7088   -1.4425   -8.4149 C.3       11 UNK         0.1007 
     66 C          36.1155   -1.9160   -7.9369 C.2       11 UNK         0.5703 
     67 N          36.8886   -1.1021   -7.2268 N.am      11 UNK        -0.7361 
     68 O          36.5149   -3.0413   -8.2278 O.2       11 UNK        -0.4986 
     69 C69        33.5725   -2.2343   -7.7101 C.3       12 UNK        -0.0947 
     70 S70        33.3551   -1.8173   -5.9437 S.3       12 UNK        -0.2240 
     71 C71        31.5508   -1.9595   -5.7610 C.3       12 UNK         0.0194 
     72 H72        28.3401   -2.0596   -5.0905 H         1 UNK         0.0906 
     73 H73        27.5792   -2.8093   -6.4928 H         1 UNK         0.0906 
     74 H74        26.6951   -1.6065   -5.5536 H         1 UNK         0.0906 
     75 H75        28.2151   -3.2278   -3.1697 H         1 UNK         0.3140 
     76 H76        27.0008   -5.7661   -2.9998 H         1 UNK         0.1085 
     77 H77        27.6906   -5.6400   -0.5637 H         1 UNK         0.0836 
     78 H78        28.1670   -3.9793   -0.8067 H         1 UNK         0.0836 
     79 H79        30.5762   -4.0199   -0.2710 H         1 UNK         0.0731 
     80 H80        31.8096   -4.6353   -1.3376 H         1 UNK         0.0731 
     81 H81        31.3525   -3.9945   -3.9700 H         1 UNK         0.1312 
     82 H82        30.9065    0.2541   -4.3076 H         1 UNK         0.1406 
     83 H83        30.1858   -1.6860   -0.5486 H         1 UNK         0.1631 
     84 H84        30.9232    1.5359   -2.1291 H         1 UNK         0.0717 
     85 H85        30.5404    0.7207   -0.6431 H         1 UNK         0.0717 
     86 H86        28.0900    3.0969   -3.3633 H         1 UNK         0.0934 
     87 H87        29.4665    2.1623   -3.8709 H         1 UNK         0.0934 
     88 H88        27.9507    0.2477   -4.4456 H         1 UNK         0.0739 
     89 H89        25.9020    0.1680   -3.6823 H         1 UNK         0.3093 
     90 H90        24.1551    1.2731   -2.0557 H         1 UNK         0.0818 
     91 H91        21.9625    2.3617   -2.4839 H         1 UNK         0.0819 
     92 H92        23.2495    3.5509   -2.4332 H         1 UNK         0.0819 
     93 H93        22.5811    3.0580   -3.9828 H         1 UNK         0.0819 
     94 H94        22.4576    0.5959   -4.2614 H         1 UNK         0.3041 
     95 H95        21.8662   -1.6771   -4.2896 H         1 UNK         0.0784 
     96 H96        22.6450   -2.6748   -6.4485 H         1 UNK         0.0793 
     97 H97        23.0157   -0.9606   -6.3837 H         1 UNK         0.0793 
     98 H98        24.2907   -2.1444   -6.1171 H         1 UNK         0.0793 
     99 H99        24.0391   -3.6966   -4.2221 H         1 UNK         0.3024 
    100 H100       23.0641   -5.0082   -1.1174 H         1 UNK         0.1171 
    101 H101       22.4744   -6.3447   -3.8185 H         1 UNK         0.0786 
    102 H102       21.3267   -6.1504   -2.5009 H         1 UNK         0.0786 
    103 H103       22.7309   -7.1820   -2.2866 H         1 UNK         0.0786 
    104 H104       24.8242   -5.8286   -3.2929 H         1 UNK         0.2977 
    105 H105       26.3513    3.2462   -5.4738 H         1 UNK         0.3127 
    106 H106       28.0042    3.9219   -7.6371 H         1 UNK         0.0770 
    107 H107       25.0341    4.5427   -7.1888 H         1 UNK         0.0814 
    108 H108       26.0905    5.3989   -8.3048 H         1 UNK         0.0814 
    109 H109       26.3955    5.4825   -6.5780 H         1 UNK         0.0814 
    110 H110       25.5994    1.4230   -7.5639 H         1 UNK         0.2983 
    111 H111       25.0954    1.1356  -10.3717 H         1 UNK         0.0947 
    112 H112       24.2962   -1.1315   -9.7023 H         1 UNK         0.0806 
    113 H113       23.6691    0.0889   -8.6078 H         1 UNK         0.0806 
    114 H114       25.0190   -0.9388   -8.1128 H         1 UNK         0.0806 
    115 H115       27.8930    0.3834   -8.4188 H         1 UNK         0.3000 
    116 H116       29.2937   -0.7032  -10.7873 H         1 UNK         0.0850 
    117 H117       29.3900   -1.9759   -7.9932 H         1 UNK         0.0810 
    118 H118       28.6621   -2.7118   -9.4202 H         1 UNK         0.0810 
    119 H119       30.3949   -2.4279   -9.3646 H         1 UNK         0.0810 
    120 H120       29.3300    1.8716  -10.2882 H         1 UNK         0.3040 
    121 H121       30.9483    2.9218   -8.2844 H         1 UNK         0.0766 
    122 H122       29.4898    4.3112   -9.7223 H         1 UNK         0.0812 
    123 H123       30.4880    3.9609  -11.1329 H         1 UNK         0.0812 
    124 H124       31.1368    4.9122   -9.8045 H         1 UNK         0.0812 
    125 H125       33.0401    2.9641   -7.8709 H         1 UNK         0.3205 
    126 H126       35.2158    2.6127   -7.8525 H         1 UNK         0.0754 
    127 H127       35.2982    4.4047   -9.5914 H         1 UNK         0.0769 
    128 H128       35.2182    3.1852  -10.8619 H         1 UNK         0.0769 
    129 H129       36.6042    3.2482   -9.7852 H         1 UNK         0.0769 
    130 H130       33.7609    0.3240   -7.7380 H         1 UNK         0.2981 
    131 H131       34.6645   -1.7212   -9.4694 H         1 UNK         0.0541 
    132 H132       36.5647   -0.1837   -6.9720 H         1 UNK         0.3459 
    133 H133       37.7975   -1.4193   -6.9290 H         1 UNK         0.3459 
    134 H134       32.6341   -2.0584   -8.2348 H         1 UNK         0.0612 
    135 H135       33.7456   -3.3091   -7.7885 H         1 UNK         0.0612 
    136 H136       31.2119   -2.9018   -6.1944 H         1 UNK         0.0624 
    137 H137       31.0606   -1.1639   -6.3201 H         1 UNK         0.0624 
@<TRIPOS>BOND
     1    1    2 1    
     2    1   72 1    
     3    1   73 1    
     4    1   74 1    
     5    2    3 2    
     6    2    4 am   BACKBONE|DICT|INTERRES
     7    4    5 1    
     8    4   75 1    
     9    5    6 1    
    10    5   35 1    
    11    5   76 1    
    12    6    7 1    
    13    6   77 1    
    14    6   78 1    
    15    7    8 1    
    16    8    9 1    
    17    8   79 1    
    18    8   80 1    
    19    9   10 ar   
    20    9   14 ar   
    21   10   11 ar   
    22   10   81 1    
    23   11   12 ar   
    24   11   71 1    
    25   12   13 ar   
    26   12   82 1    
    27   13   14 ar   
    28   13   15 1    
    29   14   83 1    
    30   15   16 1    
    31   15   84 1    
    32   15   85 1    
    33   16   17 1    
    34   17   18 1    
    35   17   86 1    
    36   17   87 1    
    37   18   19 1    
    38   18   37 1    
    39   18   88 1    
    40   19   20 am   BACKBONE|DICT|INTERRES
    41   19   89 1    
    42   20   21 2    
    43   20   22 1    
    44   22   23 1    
    45   22   24 1    
    46   22   90 1    
    47   23   91 1    
    48   23   92 1    
    49   23   93 1    
    50   24   25 am   BACKBONE|DICT|INTERRES
    51   24   94 1    
    52   25   26 2    
    53   25   27 1    
    54   27   28 1    
    55   27   29 1    
    56   27   95 1    
    57   28   96 1    
    58   28   97 1    
    59   28   98 1    
    60   29   30 am   BACKBONE|DICT|INTERRES
    61   29   99 1    
    62   30   31 2    
    63   30   32 1    
    64   32   33 1    
    65   32   34 1    
    66   32  100 1    
    67   33  101 1    
    68   33  102 1    
    69   33  103 1    
    70   34   35 am   BACKBONE|DICT|INTERRES
    71   34  104 1    
    72   35   36 2    
    73   37   38 2    
    74   37   39 am   BACKBONE|DICT|INTERRES
    75   39   40 1    
    76   39  105 1    
    77   40   41 1    
    78   40   42 1    
    79   40  106 1    
    80   41  107 1    
    81   41  108 1    
    82   41  109 1    
    83   42   43 2    
    84   42   44 am   BACKBONE|DICT|INTERRES
    85   44   45 1    
    86   44  110 1    
    87   45   46 1    
    88   45   47 1    
    89   45  111 1    
    90   46  112 1    
    91   46  113 1    
    92   46  114 1    
    93   47   48 2    
    94   47   49 am   BACKBONE|DICT|INTERRES
    95   49   50 1    
    96   49  115 1    
    97   50   51 1    
    98   50   52 1    
    99   50  116 1    
   100   51  117 1    
   101   51  118 1    
   102   51  119 1    
   103   52   53 2    
   104   52   54 am   BACKBONE|DICT|INTERRES
   105   54   55 1    
   106   54  120 1    
   107   55   56 1    
   108   55   57 1    
   109   55  121 1    
   110   56  122 1    
   111   56  123 1    
   112   56  124 1    
   113   57   58 2    
   114   57   59 am   BACKBONE|DICT|INTERRES
   115   59   60 1    
   116   59  125 1    
   117   60   61 1    
   118   60   62 1    
   119   60  126 1    
   120   61  127 1    
   121   61  128 1    
   122   61  129 1    
   123   62   63 2    
   124   62   64 am   BACKBONE|DICT|INTERRES
   125   64   65 1    
   126   64  130 1    
   127   65   66 1    
   128   65   69 1    
   129   65  131 1    
   130   66   67 am   BACKBONE|DICT|INTERRES
   131   66   68 2    
   132   67  132 1    
   133   67  133 1    
   134   69   70 1    
   135   69  134 1    
   136   69  135 1    
   137   70   71 1    
   138   71  136 1    
   139   71  137 1    
@<TRIPOS>SUBSTRUCTURE
     1 UNK         1 GROUP             0       ****    0 ROOT    
