@<TRIPOS>MOLECULE
3R137
137   139    1
SMALL
USER_CHARGES


@<TRIPOS>ATOM
      1 CA         29.0666    1.8093    0.2155 C.3       0 UNK        -0.2020 
      2 C          28.3259    0.4994   -0.0081 C.2       0 UNK         0.4855 
      3 O          27.4634    0.1435    0.7943 O.2       0 UNK        -0.5197 
      4 N          28.6493   -0.2057   -1.1026 N.am      1 UNK        -0.4892 
      5 CA         28.1214   -1.5277   -1.4983 C.3       1 UNK         0.0835 
      6 C6         28.4199   -2.6475   -0.4597 C.3       12 UNK        -0.0855 
      7 S7         30.1933   -2.7365   -0.0144 S.3       12 UNK        -0.2931 
      8 C8         30.7029   -4.3519   -0.6814 C.3       12 UNK         0.0378 
      9 C9         30.6709   -4.3911   -2.2026 C.ar      12 UNK        -0.0802 
     10 C10        31.6693   -3.7568   -2.9501 C.ar      12 UNK        -0.0944 
     11 C11        31.6581   -3.8176   -4.3478 C.ar      12 UNK        -0.0787 
     12 C12        30.6366   -4.5195   -4.9959 C.ar      12 UNK        -0.0862 
     13 C13        29.6317   -5.1562   -4.2583 C.ar      12 UNK        -0.0733 
     14 C14        29.6578   -5.0912   -2.8630 C.ar      12 UNK        -0.0832 
     15 C15        28.5152   -5.9170   -4.9644 C.3       12 UNK         0.0240 
     16 S16        26.8832   -5.1425   -4.7104 S.3       12 UNK        -0.2522 
     17 C17        27.1439   -3.5045   -5.4608 C.3       12 UNK        -0.0967 
     18 CA         26.4023   -3.3632   -6.8167 C.3       5 UNK         0.0660 
     19 N          25.0273   -2.9263   -6.5937 N.am      5 UNK        -0.4015 
     20 C          23.9359   -3.4350   -7.1765 C.2       4 UNK         0.4946 
     21 O          23.9597   -4.3664   -7.9829 O.2       4 UNK        -0.5353 
     22 CA         22.5755   -2.8207   -6.7872 C.3       4 UNK         0.0277 
     23 CB         21.8270   -3.7502   -5.8172 C.3       4 UNK        -0.1981 
     24 N          22.6934   -1.4939   -6.1768 N.am      4 UNK        -0.4209 
     25 C          22.9984   -0.3737   -6.8457 C.2       3 UNK         0.4942 
     26 O          23.0804   -0.3170   -8.0728 O.2       3 UNK        -0.5208 
     27 CA         23.2629    0.8997   -6.0183 C.3       3 UNK         0.0250 
     28 CB         22.0951    1.8891   -6.1667 C.3       3 UNK        -0.1990 
     29 N          23.5283    0.6836   -4.5891 N.am      3 UNK        -0.4232 
     30 C          24.5754    0.0180   -4.0809 C.2       2 UNK         0.4993 
     31 O          25.3882   -0.5982   -4.7718 O.2       2 UNK        -0.5286 
     32 CA         24.7151    0.0652   -2.5499 C.3       2 UNK         0.0209 
     33 CB         23.6112   -0.7541   -1.8470 C.3       2 UNK        -0.1931 
     34 N          26.0638   -0.2931   -2.0841 N.am      2 UNK        -0.4546 
     35 C          26.6317   -1.5014   -1.9321 C.2       1 UNK         0.5154 
     36 O          26.0458   -2.5665   -2.1267 O.2       1 UNK        -0.5181 
     37 C          27.1311   -2.3540   -7.7214 C.2       5 UNK         0.5014 
     38 O          26.6365   -1.2530   -7.9794 O.2       5 UNK        -0.5248 
     39 N          28.3615   -2.7251   -8.1106 N.am      6 UNK        -0.4434 
     40 CA         29.3434   -1.8821   -8.8057 C.3       6 UNK         0.0363 
     41 CB         30.6040   -2.7120   -9.0963 C.3       6 UNK        -0.1936 
     42 C          29.7229   -0.5902   -8.0551 C.2       6 UNK         0.5081 
     43 O          30.2881    0.3152   -8.6671 O.2       6 UNK        -0.5248 
     44 N          29.3698   -0.4904   -6.7653 N.am      7 UNK        -0.4718 
     45 CA         29.4363    0.7172   -5.9381 C.3       7 UNK         0.0273 
     46 CB         28.9717    0.3798   -4.5164 C.3       7 UNK        -0.1935 
     47 C          28.6482    1.9128   -6.5075 C.2       7 UNK         0.5018 
     48 O          29.0028    3.0514   -6.2031 O.2       7 UNK        -0.5186 
     49 N          27.6728    1.6532   -7.3943 N.am      8 UNK        -0.4240 
     50 CA         27.0299    2.6522   -8.2579 C.3       8 UNK         0.0235 
     51 CB         25.9676    1.9566   -9.1238 C.3       8 UNK        -0.2000 
     52 C          28.0164    3.4262   -9.1607 C.2       8 UNK         0.4941 
     53 O          27.7418    4.5778   -9.4986 O.2       8 UNK        -0.5273 
     54 N          29.1481    2.7967   -9.5071 N.am      9 UNK        -0.4262 
     55 CA         30.2839    3.3823  -10.2198 C.3       9 UNK         0.0264 
     56 CB         30.4836    2.6193  -11.5425 C.3       9 UNK        -0.1955 
     57 C          31.5478    3.3493   -9.3358 C.2       9 UNK         0.5031 
     58 O          32.6573    3.2291   -9.8604 O.2       9 UNK        -0.5390 
     59 N          31.3624    3.4230   -8.0066 N.am      10 UNK        -0.4204 
     60 CA         32.3878    3.4164   -6.9533 C.3       10 UNK         0.0237 
     61 CB         33.1893    4.7355   -6.9836 C.3       10 UNK        -0.1985 
     62 C          33.3023    2.1716   -6.9505 C.2       10 UNK         0.4970 
     63 O          34.4366    2.2607   -6.4777 O.2       10 UNK        -0.4914 
     64 N          32.8044    1.0439   -7.4792 N.am      11 UNK        -0.4285 
     65 CA         33.5370   -0.2163   -7.6886 C.3       11 UNK         0.1007 
     66 C          34.6884   -0.1099   -8.7367 C.2       11 UNK         0.5703 
     67 N          34.7049    0.8984   -9.6032 N.am      11 UNK        -0.7361 
     68 O          35.5633   -0.9709   -8.7953 O.2       11 UNK        -0.4986 
     69 C69        33.9601   -0.9121   -6.3598 C.3       12 UNK        -0.0947 
     70 S70        32.5304   -1.3632   -5.3137 S.3       12 UNK        -0.2240 
     71 C71        32.7699   -3.1600   -5.1547 C.3       12 UNK         0.0194 
     72 H72        29.6111    1.7739    1.1588 H         1 UNK         0.0906 
     73 H73        29.7818    2.0171   -0.5801 H         1 UNK         0.0906 
     74 H74        28.3602    2.6378    0.2613 H         1 UNK         0.0906 
     75 H75        29.3822    0.1490   -1.7006 H         1 UNK         0.3140 
     76 H76        28.6625   -1.8025   -2.4049 H         1 UNK         0.1085 
     77 H77        28.0976   -3.6183   -0.8394 H         1 UNK         0.0836 
     78 H78        27.8471   -2.4838    0.4543 H         1 UNK         0.0836 
     79 H79        30.0704   -5.1332   -0.2566 H         1 UNK         0.0731 
     80 H80        31.7167   -4.5665   -0.3404 H         1 UNK         0.0731 
     81 H81        32.4589   -3.2191   -2.4428 H         1 UNK         0.1312 
     82 H82        30.6290   -4.5749   -6.0755 H         1 UNK         0.1406 
     83 H83        28.8822   -5.5863   -2.2939 H         1 UNK         0.1631 
     84 H84        28.4834   -6.9391   -4.5845 H         1 UNK         0.0717 
     85 H85        28.7104   -5.9945   -6.0350 H         1 UNK         0.0717 
     86 H86        26.8076   -2.7500   -4.7495 H         1 UNK         0.0934 
     87 H87        28.2147   -3.3308   -5.5504 H         1 UNK         0.0934 
     88 H88        26.4142   -4.3212   -7.3414 H         1 UNK         0.0739 
     89 H89        24.9367   -2.1072   -5.9999 H         1 UNK         0.3093 
     90 H90        21.9839   -2.7298   -7.7009 H         1 UNK         0.0818 
     91 H91        22.3714   -3.8800   -4.8808 H         1 UNK         0.0819 
     92 H92        20.8355   -3.3635   -5.5806 H         1 UNK         0.0819 
     93 H93        21.6904   -4.7407   -6.2537 H         1 UNK         0.0819 
     94 H94        22.6303   -1.4452   -5.1706 H         1 UNK         0.3041 
     95 H95        24.1562    1.3657   -6.4378 H         1 UNK         0.0784 
     96 H96        21.8959    2.1052   -7.2175 H         1 UNK         0.0793 
     97 H97        21.1744    1.4939   -5.7355 H         1 UNK         0.0793 
     98 H98        22.3146    2.8402   -5.6810 H         1 UNK         0.0793 
     99 H99        22.8964    1.1452   -3.9501 H         1 UNK         0.3024 
    100 H100       24.5849    1.1088   -2.2577 H         1 UNK         0.1171 
    101 H101       23.5842   -1.7876   -2.1939 H         1 UNK         0.0786 
    102 H102       22.6248   -0.3291   -2.0351 H         1 UNK         0.0786 
    103 H103       23.7537   -0.7667   -0.7663 H         1 UNK         0.0786 
    104 H104       26.6666    0.4944   -1.8935 H         1 UNK         0.2977 
    105 H105       28.6736   -3.6565   -7.8771 H         1 UNK         0.3127 
    106 H106       28.9001   -1.5799   -9.7566 H         1 UNK         0.0770 
    107 H107       31.1076   -3.0184   -8.1785 H         1 UNK         0.0814 
    108 H108       31.3203   -2.1371   -9.6850 H         1 UNK         0.0814 
    109 H109       30.3690   -3.6089   -9.6697 H         1 UNK         0.0814 
    110 H110       28.9209   -1.2887   -6.3456 H         1 UNK         0.2983 
    111 H111       30.4826    1.0204   -5.8846 H         1 UNK         0.0947 
    112 H112       27.9506   -0.0011   -4.5068 H         1 UNK         0.0806 
    113 H113       29.0001    1.2622   -3.8757 H         1 UNK         0.0806 
    114 H114       29.6216   -0.3712   -4.0675 H         1 UNK         0.0806 
    115 H115       27.4230    0.6835   -7.5640 H         1 UNK         0.3000 
    116 H116       26.5337    3.3778   -7.6102 H         1 UNK         0.0850 
    117 H117       25.4310    2.6780   -9.7416 H         1 UNK         0.0810 
    118 H118       25.2282    1.4394   -8.5143 H         1 UNK         0.0810 
    119 H119       26.4140    1.2196   -9.7929 H         1 UNK         0.0810 
    120 H120       29.3061    1.8483   -9.1737 H         1 UNK         0.3040 
    121 H121       30.0900    4.4312  -10.4523 H         1 UNK         0.0766 
    122 H122       29.5816    2.6443  -12.1540 H         1 UNK         0.0812 
    123 H123       30.7408    1.5738  -11.3660 H         1 UNK         0.0812 
    124 H124       31.2869    3.0598  -12.1345 H         1 UNK         0.0812 
    125 H125       30.4092    3.4933   -7.6649 H         1 UNK         0.3205 
    126 H126       31.8454    3.3851   -6.0074 H         1 UNK         0.0754 
    127 H127       33.8541    4.8139   -6.1225 H         1 UNK         0.0769 
    128 H128       32.5283    5.6019   -6.9576 H         1 UNK         0.0769 
    129 H129       33.8064    4.8112   -7.8797 H         1 UNK         0.0769 
    130 H130       31.8715    1.0553   -7.8794 H         1 UNK         0.2981 
    131 H131       32.8202   -0.8803   -8.1696 H         1 UNK         0.0541 
    132 H132       33.9900    1.6171   -9.5839 H         1 UNK         0.3459 
    133 H133       35.4465    0.9490  -10.2829 H         1 UNK         0.3459 
    134 H134       34.5294   -1.8185   -6.5708 H         1 UNK         0.0612 
    135 H135       34.6275   -0.2742   -5.7798 H         1 UNK         0.0612 
    136 H136       33.7308   -3.3518   -4.6747 H         1 UNK         0.0624 
    137 H137       32.8281   -3.6022   -6.1505 H         1 UNK         0.0624 
@<TRIPOS>BOND
     1    1    2 1    
     2    1   72 1    
     3    1   73 1    
     4    1   74 1    
     5    2    3 2    
     6    2    4 am   BACKBONE|DICT|INTERRES
     7    4    5 1    
     8    4   75 1    
     9    5    6 1    
    10    5   35 1    
    11    5   76 1    
    12    6    7 1    
    13    6   77 1    
    14    6   78 1    
    15    7    8 1    
    16    8    9 1    
    17    8   79 1    
    18    8   80 1    
    19    9   10 ar   
    20    9   14 ar   
    21   10   11 ar   
    22   10   81 1    
    23   11   12 ar   
    24   11   71 1    
    25   12   13 ar   
    26   12   82 1    
    27   13   14 ar   
    28   13   15 1    
    29   14   83 1    
    30   15   16 1    
    31   15   84 1    
    32   15   85 1    
    33   16   17 1    
    34   17   18 1    
    35   17   86 1    
    36   17   87 1    
    37   18   19 1    
    38   18   37 1    
    39   18   88 1    
    40   19   20 am   BACKBONE|DICT|INTERRES
    41   19   89 1    
    42   20   21 2    
    43   20   22 1    
    44   22   23 1    
    45   22   24 1    
    46   22   90 1    
    47   23   91 1    
    48   23   92 1    
    49   23   93 1    
    50   24   25 am   BACKBONE|DICT|INTERRES
    51   24   94 1    
    52   25   26 2    
    53   25   27 1    
    54   27   28 1    
    55   27   29 1    
    56   27   95 1    
    57   28   96 1    
    58   28   97 1    
    59   28   98 1    
    60   29   30 am   BACKBONE|DICT|INTERRES
    61   29   99 1    
    62   30   31 2    
    63   30   32 1    
    64   32   33 1    
    65   32   34 1    
    66   32  100 1    
    67   33  101 1    
    68   33  102 1    
    69   33  103 1    
    70   34   35 am   BACKBONE|DICT|INTERRES
    71   34  104 1    
    72   35   36 2    
    73   37   38 2    
    74   37   39 am   BACKBONE|DICT|INTERRES
    75   39   40 1    
    76   39  105 1    
    77   40   41 1    
    78   40   42 1    
    79   40  106 1    
    80   41  107 1    
    81   41  108 1    
    82   41  109 1    
    83   42   43 2    
    84   42   44 am   BACKBONE|DICT|INTERRES
    85   44   45 1    
    86   44  110 1    
    87   45   46 1    
    88   45   47 1    
    89   45  111 1    
    90   46  112 1    
    91   46  113 1    
    92   46  114 1    
    93   47   48 2    
    94   47   49 am   BACKBONE|DICT|INTERRES
    95   49   50 1    
    96   49  115 1    
    97   50   51 1    
    98   50   52 1    
    99   50  116 1    
   100   51  117 1    
   101   51  118 1    
   102   51  119 1    
   103   52   53 2    
   104   52   54 am   BACKBONE|DICT|INTERRES
   105   54   55 1    
   106   54  120 1    
   107   55   56 1    
   108   55   57 1    
   109   55  121 1    
   110   56  122 1    
   111   56  123 1    
   112   56  124 1    
   113   57   58 2    
   114   57   59 am   BACKBONE|DICT|INTERRES
   115   59   60 1    
   116   59  125 1    
   117   60   61 1    
   118   60   62 1    
   119   60  126 1    
   120   61  127 1    
   121   61  128 1    
   122   61  129 1    
   123   62   63 2    
   124   62   64 am   BACKBONE|DICT|INTERRES
   125   64   65 1    
   126   64  130 1    
   127   65   66 1    
   128   65   69 1    
   129   65  131 1    
   130   66   67 am   BACKBONE|DICT|INTERRES
   131   66   68 2    
   132   67  132 1    
   133   67  133 1    
   134   69   70 1    
   135   69  134 1    
   136   69  135 1    
   137   70   71 1    
   138   71  136 1    
   139   71  137 1    
@<TRIPOS>SUBSTRUCTURE
     1 UNK         1 GROUP             0       ****    0 ROOT    
