@<TRIPOS>MOLECULE
3R137
137   139    1
SMALL
USER_CHARGES


@<TRIPOS>ATOM
      1 CA         29.2930   -0.2757    4.3226 C.3       0 UNK        -0.2020 
      2 C          29.6982   -0.5788    2.8879 C.2       0 UNK         0.4855 
      3 O          30.6710   -0.0086    2.3939 O.2       0 UNK        -0.5197 
      4 N          28.9602   -1.4731    2.2154 N.am      1 UNK        -0.4892 
      5 CA         29.1935   -1.8722    0.8199 C.3       1 UNK         0.0835 
      6 C6         28.4502   -3.1945    0.4911 C.3       12 UNK        -0.0855 
      7 S7         29.2516   -4.1531   -0.8373 S.3       12 UNK        -0.2931 
      8 C8         28.1595   -3.7619   -2.2379 C.3       12 UNK         0.0378 
      9 C9         28.7146   -4.2910   -3.5501 C.ar      12 UNK        -0.0802 
     10 C10        29.8414   -3.6927   -4.1193 C.ar      12 UNK        -0.0944 
     11 C11        30.3443   -4.1464   -5.3410 C.ar      12 UNK        -0.0787 
     12 C12        29.7151   -5.2074   -5.9966 C.ar      12 UNK        -0.0862 
     13 C13        28.5834   -5.8105   -5.4388 C.ar      12 UNK        -0.0733 
     14 C14        28.0889   -5.3504   -4.2138 C.ar      12 UNK        -0.0832 
     15 C15        27.8982   -6.9665   -6.1514 C.3       12 UNK         0.0240 
     16 S16        26.3664   -6.4424   -6.9843 S.3       12 UNK        -0.2522 
     17 C17        26.9999   -5.4260   -8.3612 C.3       12 UNK        -0.0967 
     18 CA         26.4949   -3.9649   -8.2881 C.3       5 UNK         0.0660 
     19 N          26.9369   -3.2573   -7.0803 N.am      5 UNK        -0.4015 
     20 C          26.3954   -2.1089   -6.6512 C.2       4 UNK         0.4946 
     21 O          25.3906   -1.5898   -7.1437 O.2       4 UNK        -0.5353 
     22 CA         27.1500   -1.3705   -5.5369 C.3       4 UNK         0.0277 
     23 CB         27.8572   -0.1396   -6.1246 C.3       4 UNK        -0.1981 
     24 N          26.2848   -0.9298   -4.4443 N.am      4 UNK        -0.4209 
     25 C          25.5216   -1.7078   -3.6686 C.2       3 UNK         0.4942 
     26 O          25.4183   -2.9279   -3.8031 O.2       3 UNK        -0.5208 
     27 CA         24.7975   -0.9944   -2.5093 C.3       3 UNK         0.0250 
     28 CB         23.8617   -1.9366   -1.7283 C.3       3 UNK        -0.1990 
     29 N          25.7441   -0.3854   -1.5681 N.am      3 UNK        -0.4232 
     30 C          26.4263    0.7524   -1.7660 C.2       2 UNK         0.4993 
     31 O          26.3294    1.4327   -2.7885 O.2       2 UNK        -0.5286 
     32 CA         27.3777    1.2090   -0.6462 C.3       2 UNK         0.0209 
     33 CB         26.6887    2.2487    0.2524 C.3       2 UNK        -0.1931 
     34 N          27.8650    0.1030    0.1842 N.am      2 UNK        -0.4546 
     35 C          28.8346   -0.7493   -0.1813 C.2       1 UNK         0.5154 
     36 O          29.4386   -0.6671   -1.2515 O.2       1 UNK        -0.5181 
     37 C          26.8962   -3.1802   -9.5537 C.2       5 UNK         0.5014 
     38 O          26.0995   -3.0859  -10.4887 O.2       5 UNK        -0.5248 
     39 N          28.1011   -2.5899   -9.5428 N.am      6 UNK        -0.4434 
     40 CA         28.5657   -1.6318  -10.5427 C.3       6 UNK         0.0363 
     41 CB         30.0842   -1.7892  -10.7396 C.3       6 UNK        -0.1936 
     42 C          28.1755   -0.2216  -10.0777 C.2       6 UNK         0.5081 
     43 O          29.0216    0.5300   -9.5889 O.2       6 UNK        -0.5248 
     44 N          26.8839    0.1065  -10.2057 N.am      7 UNK        -0.4718 
     45 CA         26.2855    1.3700   -9.7566 C.3       7 UNK         0.0273 
     46 CB         24.7636    1.3090   -9.9570 C.3       7 UNK        -0.1935 
     47 C          26.8734    2.6246  -10.4281 C.2       7 UNK         0.5018 
     48 O          26.8953    3.6855   -9.8047 O.2       7 UNK        -0.5186 
     49 N          27.3657    2.4747  -11.6662 N.am      8 UNK        -0.4240 
     50 CA         28.0863    3.5132  -12.4065 C.3       8 UNK         0.0235 
     51 CB         28.1797    3.1103  -13.8872 C.3       8 UNK        -0.2000 
     52 C          29.4885    3.7972  -11.8361 C.2       8 UNK         0.4941 
     53 O          29.9513    4.9349  -11.9265 O.2       8 UNK        -0.5273 
     54 N          30.1364    2.7713  -11.2645 N.am      9 UNK        -0.4262 
     55 CA         31.4322    2.8843  -10.5911 C.3       9 UNK         0.0264 
     56 CB         32.1776    1.5417  -10.6782 C.3       9 UNK        -0.1955 
     57 C          31.2770    3.3126   -9.1233 C.2       9 UNK         0.5031 
     58 O          32.1563    4.0048   -8.6090 O.2       9 UNK        -0.5390 
     59 N          30.1745    2.8852   -8.4860 N.am      10 UNK        -0.4204 
     60 CA         29.8235    3.0810   -7.0744 C.3       10 UNK         0.0237 
     61 CB         29.5978    4.5736   -6.7524 C.3       10 UNK        -0.1985 
     62 C          30.8393    2.3952   -6.1415 C.2       10 UNK         0.4970 
     63 O          31.3450    3.0118   -5.2026 O.2       10 UNK        -0.4914 
     64 N          31.1271    1.1243   -6.4473 N.am      11 UNK        -0.4285 
     65 CA         32.1166    0.2721   -5.7706 C.3       11 UNK         0.1007 
     66 C          31.7836   -0.1546   -4.3061 C.2       11 UNK         0.5703 
     67 N          30.6127    0.1611   -3.7676 N.am      11 UNK        -0.7361 
     68 O          32.6113   -0.7819   -3.6499 O.2       11 UNK        -0.4986 
     69 C69        32.4927   -0.9346   -6.6729 C.3       12 UNK        -0.0947 
     70 S70        31.0952   -2.0723   -6.9805 S.3       12 UNK        -0.2240 
     71 C71        31.5706   -3.4867   -5.9426 C.3       12 UNK         0.0194 
     72 H72        28.4232   -0.8543    4.6334 H         1 UNK         0.0906 
     73 H73        30.1137   -0.5077    5.0010 H         1 UNK         0.0906 
     74 H74        29.0522    0.7818    4.4288 H         1 UNK         0.0906 
     75 H75        28.1817   -1.9198    2.6806 H         1 UNK         0.3140 
     76 H76        30.2672   -2.0493    0.7180 H         1 UNK         0.1085 
     77 H77        27.3966   -3.0225    0.2612 H         1 UNK         0.0836 
     78 H78        28.4519   -3.8457    1.3669 H         1 UNK         0.0836 
     79 H79        27.1669   -4.1712   -2.0434 H         1 UNK         0.0731 
     80 H80        28.0378   -2.6820   -2.3210 H         1 UNK         0.0731 
     81 H81        30.3225   -2.8676   -3.6103 H         1 UNK         0.1312 
     82 H82        30.1089   -5.5622   -6.9395 H         1 UNK         0.1406 
     83 H83        27.2083   -5.8102   -3.7853 H         1 UNK         0.1631 
     84 H84        27.6539   -7.7431   -5.4251 H         1 UNK         0.0717 
     85 H85        28.5677   -7.4313   -6.8771 H         1 UNK         0.0717 
     86 H86        26.6616   -5.8951   -9.2876 H         1 UNK         0.0934 
     87 H87        28.0897   -5.4631   -8.3914 H         1 UNK         0.0934 
     88 H88        25.4029   -3.9957   -8.2694 H         1 UNK         0.0739 
     89 H89        27.7214   -3.6552   -6.5825 H         1 UNK         0.3093 
     90 H90        27.9027   -2.0329   -5.1112 H         1 UNK         0.0818 
     91 H91        28.4108    0.4013   -5.3608 H         1 UNK         0.0819 
     92 H92        28.5609   -0.4258   -6.9062 H         1 UNK         0.0819 
     93 H93        27.1444    0.5563   -6.5678 H         1 UNK         0.0819 
     94 H94        26.3134    0.0576   -4.2093 H         1 UNK         0.3041 
     95 H95        24.1834   -0.2049   -2.9483 H         1 UNK         0.0784 
     96 H96        23.1232   -2.3899   -2.3910 H         1 UNK         0.0793 
     97 H97        24.4114   -2.7480   -1.2494 H         1 UNK         0.0793 
     98 H98        23.3127   -1.3995   -0.9546 H         1 UNK         0.0793 
     99 H99        25.9013   -0.8833   -0.7052 H         1 UNK         0.3024 
    100 H100       28.2351    1.6871   -1.1266 H         1 UNK         0.1171 
    101 H101       27.3742    2.6382    1.0054 H         1 UNK         0.0786 
    102 H102       25.8238    1.8299    0.7686 H         1 UNK         0.0786 
    103 H103       26.3377    3.0993   -0.3340 H         1 UNK         0.0786 
    104 H104       27.4464   -0.0103    1.0963 H         1 UNK         0.2977 
    105 H105       28.6838   -2.6913   -8.7243 H         1 UNK         0.3127 
    106 H106       28.0844   -1.8216  -11.5046 H         1 UNK         0.0770 
    107 H107       30.6412   -1.5824   -9.8264 H         1 UNK         0.0814 
    108 H108       30.4487   -1.1022  -11.5041 H         1 UNK         0.0814 
    109 H109       30.3387   -2.7982  -11.0639 H         1 UNK         0.0814 
    110 H110       26.2509   -0.5890  -10.5793 H         1 UNK         0.2983 
    111 H111       26.4826    1.4618   -8.6869 H         1 UNK         0.0947 
    112 H112       24.2863    2.2265   -9.6097 H         1 UNK         0.0806 
    113 H113       24.3243    0.4849   -9.3936 H         1 UNK         0.0806 
    114 H114       24.4982    1.1795  -11.0070 H         1 UNK         0.0806 
    115 H115       27.2812    1.5693  -12.1049 H         1 UNK         0.3000 
    116 H116       27.5106    4.4392  -12.3400 H         1 UNK         0.0850 
    117 H117       28.6901    3.8797  -14.4685 H         1 UNK         0.0810 
    118 H118       27.1905    2.9788  -14.3262 H         1 UNK         0.0810 
    119 H119       28.7341    2.1804  -14.0207 H         1 UNK         0.0810 
    120 H120       29.6665    1.8789  -11.1885 H         1 UNK         0.3040 
    121 H121       32.0363    3.6387  -11.1001 H         1 UNK         0.0766 
    122 H122       31.6557    0.7500  -10.1406 H         1 UNK         0.0812 
    123 H123       32.3018    1.2214  -11.7127 H         1 UNK         0.0812 
    124 H124       33.1742    1.6236  -10.2424 H         1 UNK         0.0812 
    125 H125       29.5782    2.2350   -8.9926 H         1 UNK         0.3205 
    126 H126       28.8715    2.5702   -6.9246 H         1 UNK         0.0754 
    127 H127       29.2242    4.6999   -5.7356 H         1 UNK         0.0769 
    128 H128       28.8623    5.0145   -7.4257 H         1 UNK         0.0769 
    129 H129       30.5176    5.1534   -6.8340 H         1 UNK         0.0769 
    130 H130       30.6607    0.6983   -7.2348 H         1 UNK         0.2981 
    131 H131       33.0182    0.8805   -5.6792 H         1 UNK         0.0541 
    132 H132       30.3870   -0.1424   -2.8247 H         1 UNK         0.3459 
    133 H133       29.9548    0.7175   -4.2828 H         1 UNK         0.3459 
    134 H134       32.8394   -0.5708   -7.6415 H         1 UNK         0.0612 
    135 H135       33.3400   -1.4800   -6.2542 H         1 UNK         0.0612 
    136 H136       32.1384   -4.1990   -6.5429 H         1 UNK         0.0624 
    137 H137       32.2334   -3.1660   -5.1378 H         1 UNK         0.0624 
@<TRIPOS>BOND
     1    1    2 1    
     2    1   72 1    
     3    1   73 1    
     4    1   74 1    
     5    2    3 2    
     6    2    4 am   BACKBONE|DICT|INTERRES
     7    4    5 1    
     8    4   75 1    
     9    5    6 1    
    10    5   35 1    
    11    5   76 1    
    12    6    7 1    
    13    6   77 1    
    14    6   78 1    
    15    7    8 1    
    16    8    9 1    
    17    8   79 1    
    18    8   80 1    
    19    9   10 ar   
    20    9   14 ar   
    21   10   11 ar   
    22   10   81 1    
    23   11   12 ar   
    24   11   71 1    
    25   12   13 ar   
    26   12   82 1    
    27   13   14 ar   
    28   13   15 1    
    29   14   83 1    
    30   15   16 1    
    31   15   84 1    
    32   15   85 1    
    33   16   17 1    
    34   17   18 1    
    35   17   86 1    
    36   17   87 1    
    37   18   19 1    
    38   18   37 1    
    39   18   88 1    
    40   19   20 am   BACKBONE|DICT|INTERRES
    41   19   89 1    
    42   20   21 2    
    43   20   22 1    
    44   22   23 1    
    45   22   24 1    
    46   22   90 1    
    47   23   91 1    
    48   23   92 1    
    49   23   93 1    
    50   24   25 am   BACKBONE|DICT|INTERRES
    51   24   94 1    
    52   25   26 2    
    53   25   27 1    
    54   27   28 1    
    55   27   29 1    
    56   27   95 1    
    57   28   96 1    
    58   28   97 1    
    59   28   98 1    
    60   29   30 am   BACKBONE|DICT|INTERRES
    61   29   99 1    
    62   30   31 2    
    63   30   32 1    
    64   32   33 1    
    65   32   34 1    
    66   32  100 1    
    67   33  101 1    
    68   33  102 1    
    69   33  103 1    
    70   34   35 am   BACKBONE|DICT|INTERRES
    71   34  104 1    
    72   35   36 2    
    73   37   38 2    
    74   37   39 am   BACKBONE|DICT|INTERRES
    75   39   40 1    
    76   39  105 1    
    77   40   41 1    
    78   40   42 1    
    79   40  106 1    
    80   41  107 1    
    81   41  108 1    
    82   41  109 1    
    83   42   43 2    
    84   42   44 am   BACKBONE|DICT|INTERRES
    85   44   45 1    
    86   44  110 1    
    87   45   46 1    
    88   45   47 1    
    89   45  111 1    
    90   46  112 1    
    91   46  113 1    
    92   46  114 1    
    93   47   48 2    
    94   47   49 am   BACKBONE|DICT|INTERRES
    95   49   50 1    
    96   49  115 1    
    97   50   51 1    
    98   50   52 1    
    99   50  116 1    
   100   51  117 1    
   101   51  118 1    
   102   51  119 1    
   103   52   53 2    
   104   52   54 am   BACKBONE|DICT|INTERRES
   105   54   55 1    
   106   54  120 1    
   107   55   56 1    
   108   55   57 1    
   109   55  121 1    
   110   56  122 1    
   111   56  123 1    
   112   56  124 1    
   113   57   58 2    
   114   57   59 am   BACKBONE|DICT|INTERRES
   115   59   60 1    
   116   59  125 1    
   117   60   61 1    
   118   60   62 1    
   119   60  126 1    
   120   61  127 1    
   121   61  128 1    
   122   61  129 1    
   123   62   63 2    
   124   62   64 am   BACKBONE|DICT|INTERRES
   125   64   65 1    
   126   64  130 1    
   127   65   66 1    
   128   65   69 1    
   129   65  131 1    
   130   66   67 am   BACKBONE|DICT|INTERRES
   131   66   68 2    
   132   67  132 1    
   133   67  133 1    
   134   69   70 1    
   135   69  134 1    
   136   69  135 1    
   137   70   71 1    
   138   71  136 1    
   139   71  137 1    
@<TRIPOS>SUBSTRUCTURE
     1 UNK         1 GROUP             0       ****    0 ROOT    
