@<TRIPOS>MOLECULE
3R137
137   139    1
SMALL
USER_CHARGES


@<TRIPOS>ATOM
      1 CA         23.6616   -5.2172   -3.2641 C.3       0 UNK        -0.2020 
      2 C          24.8304   -4.6884   -2.4476 C.2       0 UNK         0.4855 
      3 O          24.6181   -4.0554   -1.4122 O.2       0 UNK        -0.5197 
      4 N          26.0648   -4.9307   -2.9084 N.am      1 UNK        -0.4892 
      5 CA         27.3093   -4.4385   -2.3069 C.3       1 UNK         0.0835 
      6 C6         28.5693   -5.0461   -2.9809 C.3       12 UNK        -0.0855 
      7 S7         28.5717   -4.9553   -4.8093 S.3       12 UNK        -0.2931 
      8 C8         30.3496   -4.8035   -5.1835 C.3       12 UNK         0.0378 
      9 C9         30.9732   -3.5114   -4.6664 C.ar      12 UNK        -0.0802 
     10 C10        32.1423   -3.5586   -3.8997 C.ar      12 UNK        -0.0944 
     11 C11        32.7531   -2.3791   -3.4622 C.ar      12 UNK        -0.0787 
     12 C12        32.1689   -1.1463   -3.7677 C.ar      12 UNK        -0.0862 
     13 C13        31.0091   -1.0852   -4.5421 C.ar      12 UNK        -0.0733 
     14 C14        30.4153   -2.2697   -4.9893 C.ar      12 UNK        -0.0832 
     15 C15        30.4072    0.2579   -4.9142 C.3       12 UNK         0.0240 
     16 S16        29.0368    0.6681   -3.7957 S.3       12 UNK        -0.2522 
     17 C17        28.1848    1.9825   -4.7219 C.3       12 UNK        -0.0967 
     18 CA         27.3440    1.4261   -5.8956 C.3       5 UNK         0.0660 
     19 N          26.3886    0.3859   -5.4862 N.am      5 UNK        -0.4015 
     20 C          25.6742   -0.3827   -6.3234 C.2       4 UNK         0.4946 
     21 O          25.6905   -0.2393   -7.5468 O.2       4 UNK        -0.5353 
     22 CA         24.7846   -1.4826   -5.7255 C.3       4 UNK         0.0277 
     23 CB         25.3577   -2.8701   -6.0570 C.3       4 UNK        -0.1981 
     24 N          24.6105   -1.3522   -4.2766 N.am      4 UNK        -0.4209 
     25 C          23.6836   -0.5727   -3.6976 C.2       3 UNK         0.4942 
     26 O          22.8872    0.1172   -4.3353 O.2       3 UNK        -0.5208 
     27 CA         23.6200   -0.5444   -2.1591 C.3       3 UNK         0.0250 
     28 CB         22.4475   -1.4002   -1.6527 C.3       3 UNK        -0.1990 
     29 N          24.8621   -0.9919   -1.5236 N.am      3 UNK        -0.4232 
     30 C          25.9558   -0.2238   -1.4015 C.2       2 UNK         0.4993 
     31 O          25.9980    0.9551   -1.7547 O.2       2 UNK        -0.5286 
     32 CA         27.2249   -0.8771   -0.8165 C.3       2 UNK         0.0209 
     33 CB         27.3143   -0.6127    0.6953 C.3       2 UNK        -0.1931 
     34 N          27.3354   -2.3200   -1.0631 N.am      2 UNK        -0.4546 
     35 C          27.3246   -2.8955   -2.2744 C.2       1 UNK         0.5154 
     36 O          27.2315   -2.2606   -3.3255 O.2       1 UNK        -0.5181 
     37 C          26.7324    2.5708   -6.7260 C.2       5 UNK         0.5014 
     38 O          27.4773    3.2337   -7.4466 O.2       5 UNK        -0.5248 
     39 N          25.4036    2.7446   -6.6806 N.am      6 UNK        -0.4434 
     40 CA         24.6492    3.6215   -7.5813 C.3       6 UNK         0.0363 
     41 CB         23.1750    3.6415   -7.1466 C.3       6 UNK        -0.1936 
     42 C          24.7672    3.2265   -9.0691 C.2       6 UNK         0.5081 
     43 O          24.6469    4.1004   -9.9284 O.2       6 UNK        -0.5248 
     44 N          25.0104    1.9369   -9.3443 N.am      7 UNK        -0.4718 
     45 CA         25.2710    1.3964  -10.6784 C.3       7 UNK         0.0273 
     46 CB         24.3134    0.2228  -10.9437 C.3       7 UNK        -0.1935 
     47 C          26.7311    0.9380  -10.8215 C.2       7 UNK         0.5018 
     48 O          27.3371    1.1897  -11.8635 O.2       7 UNK        -0.5186 
     49 N          27.2678    0.2628   -9.7931 N.am      8 UNK        -0.4240 
     50 CA         28.6007   -0.3496   -9.8087 C.3       8 UNK         0.0235 
     51 CB         28.7021   -1.3975   -8.6858 C.3       8 UNK        -0.2000 
     52 C          29.7646    0.6524   -9.7217 C.2       8 UNK         0.4941 
     53 O          30.8525    0.3330  -10.2018 O.2       8 UNK        -0.5273 
     54 N          29.5372    1.8255   -9.1100 N.am      9 UNK        -0.4262 
     55 CA         30.4650    2.9490   -8.8994 C.3       9 UNK         0.0264 
     56 CB         30.9451    3.5401  -10.2397 C.3       9 UNK        -0.1955 
     57 C          31.6577    2.6687   -7.9631 C.2       9 UNK         0.5031 
     58 O          31.9686    3.5201   -7.1289 O.2       9 UNK        -0.5390 
     59 N          32.3100    1.5124   -8.1088 N.am      10 UNK        -0.4204 
     60 CA         33.4987    1.0965   -7.3671 C.3       10 UNK         0.0237 
     61 CB         34.7554    1.6581   -8.0616 C.3       10 UNK        -0.1985 
     62 C          33.5423   -0.4343   -7.2659 C.2       10 UNK         0.4970 
     63 O          32.6917   -1.1140   -7.8447 O.2       10 UNK        -0.4914 
     64 N          34.5368   -0.9443   -6.5283 N.am      11 UNK        -0.4285 
     65 CA         34.7284   -2.3790   -6.2537 C.3       11 UNK         0.1007 
     66 C          35.1592   -3.2419   -7.4765 C.2       11 UNK         0.5703 
     67 N          35.5744   -2.6565   -8.5938 N.am      11 UNK        -0.7361 
     68 O          35.1152   -4.4680   -7.4082 O.2       11 UNK        -0.4986 
     69 C69        35.6740   -2.6363   -5.0429 C.3       12 UNK        -0.0947 
     70 S70        35.3988   -1.5603   -3.5905 S.3       12 UNK        -0.2240 
     71 C71        34.0678   -2.4294   -2.6977 C.3       12 UNK         0.0194 
     72 H72        23.0157   -5.8330   -2.6387 H         1 UNK         0.0906 
     73 H73        23.9942   -5.8229   -4.1072 H         1 UNK         0.0906 
     74 H74        23.0708   -4.3880   -3.6528 H         1 UNK         0.0906 
     75 H75        26.1885   -5.4182   -3.7851 H         1 UNK         0.3140 
     76 H76        27.3090   -4.7871   -1.2717 H         1 UNK         0.1085 
     77 H77        28.6470   -6.1004   -2.7104 H         1 UNK         0.0836 
     78 H78        29.4718   -4.5784   -2.5827 H         1 UNK         0.0836 
     79 H79        30.8659   -5.6755   -4.7786 H         1 UNK         0.0731 
     80 H80        30.4831   -4.8432   -6.2655 H         1 UNK         0.0731 
     81 H81        32.5945   -4.5132   -3.6676 H         1 UNK         0.1312 
     82 H82        32.6390   -0.2330   -3.4294 H         1 UNK         0.1406 
     83 H83        29.5123   -2.2262   -5.5832 H         1 UNK         0.1631 
     84 H84        31.1589    1.0476   -4.8702 H         1 UNK         0.0717 
     85 H85        30.0661    0.2190   -5.9484 H         1 UNK         0.0717 
     86 H86        27.5484    2.5286   -4.0226 H         1 UNK         0.0934 
     87 H87        28.9326    2.6951   -5.0775 H         1 UNK         0.0934 
     88 H88        28.0338    0.9362   -6.5807 H         1 UNK         0.0739 
     89 H89        26.3543    0.1821   -4.4968 H         1 UNK         0.3093 
     90 H90        23.8085   -1.4039   -6.2094 H         1 UNK         0.0818 
     91 H91        25.4272   -3.0141   -7.1363 H         1 UNK         0.0819 
     92 H92        26.3604   -3.0040   -5.6516 H         1 UNK         0.0819 
     93 H93        24.7258   -3.6668   -5.6662 H         1 UNK         0.0819 
     94 H94        25.2988   -1.8275   -3.7006 H         1 UNK         0.3041 
     95 H95        23.4300    0.4891   -1.8607 H         1 UNK         0.0784 
     96 H96        21.4999   -1.0377   -2.0541 H         1 UNK         0.0793 
     97 H97        22.5465   -2.4439   -1.9511 H         1 UNK         0.0793 
     98 H98        22.3716   -1.3674   -0.5655 H         1 UNK         0.0793 
     99 H99        24.9044   -1.9651   -1.2367 H         1 UNK         0.3024 
    100 H100       28.0814   -0.4003   -1.2956 H         1 UNK         0.1171 
    101 H101       27.2609    0.4562    0.9079 H         1 UNK         0.0786 
    102 H102       26.5000   -1.0940    1.2386 H         1 UNK         0.0786 
    103 H103       28.2563   -0.9752    1.1076 H         1 UNK         0.0786 
    104 H104       27.3690   -2.9112   -0.2448 H         1 UNK         0.2977 
    105 H105       24.8642    2.1567   -6.0612 H         1 UNK         0.3127 
    106 H106       25.0533    4.6309   -7.4783 H         1 UNK         0.0770 
    107 H107       22.7231    2.6503   -7.2053 H         1 UNK         0.0814 
    108 H108       22.5894    4.3050   -7.7847 H         1 UNK         0.0814 
    109 H109       23.0666    4.0009   -6.1230 H         1 UNK         0.0814 
    110 H110       25.1057    1.2829   -8.5726 H         1 UNK         0.2983 
    111 H111       25.0914    2.1573  -11.4414 H         1 UNK         0.0947 
    112 H112       24.4342   -0.5744  -10.2085 H         1 UNK         0.0806 
    113 H113       24.4896   -0.2108  -11.9291 H         1 UNK         0.0806 
    114 H114       23.2735    0.5486  -10.9144 H         1 UNK         0.0806 
    115 H115       26.6845    0.0646   -8.9810 H         1 UNK         0.3000 
    116 H116       28.7099   -0.8755  -10.7599 H         1 UNK         0.0850 
    117 H117       29.6776   -1.8870   -8.6954 H         1 UNK         0.0810 
    118 H118       27.9485   -2.1766   -8.8018 H         1 UNK         0.0810 
    119 H119       28.5734   -0.9572   -7.6988 H         1 UNK         0.0810 
    120 H120       28.6070    1.9953   -8.7449 H         1 UNK         0.3040 
    121 H121       29.8728    3.7224   -8.4083 H         1 UNK         0.0766 
    122 H122       31.5646    2.8384  -10.7991 H         1 UNK         0.0812 
    123 H123       31.5425    4.4381  -10.0761 H         1 UNK         0.0812 
    124 H124       30.1030    3.8218  -10.8719 H         1 UNK         0.0812 
    125 H125       31.9621    0.8434   -8.7966 H         1 UNK         0.3205 
    126 H126       33.4406    1.4871   -6.3488 H         1 UNK         0.0754 
    127 H127       35.6649    1.4012   -7.5177 H         1 UNK         0.0769 
    128 H128       34.7201    2.7461   -8.1230 H         1 UNK         0.0769 
    129 H129       34.8584    1.2718   -9.0765 H         1 UNK         0.0769 
    130 H130       35.1952   -0.3231   -6.0825 H         1 UNK         0.2981 
    131 H131       33.7458   -2.7646   -5.9848 H         1 UNK         0.0541 
    132 H132       35.8473   -3.2270   -9.3785 H         1 UNK         0.3459 
    133 H133       35.6082   -1.6526   -8.6618 H         1 UNK         0.3459 
    134 H134       36.7121   -2.4892   -5.3470 H         1 UNK         0.0612 
    135 H135       35.6016   -3.6769   -4.7215 H         1 UNK         0.0612 
    136 H136       33.9296   -1.9575   -1.7240 H         1 UNK         0.0624 
    137 H137       34.3755   -3.4580   -2.5037 H         1 UNK         0.0624 
@<TRIPOS>BOND
     1    1    2 1    
     2    1   72 1    
     3    1   73 1    
     4    1   74 1    
     5    2    3 2    
     6    2    4 am   BACKBONE|DICT|INTERRES
     7    4    5 1    
     8    4   75 1    
     9    5    6 1    
    10    5   35 1    
    11    5   76 1    
    12    6    7 1    
    13    6   77 1    
    14    6   78 1    
    15    7    8 1    
    16    8    9 1    
    17    8   79 1    
    18    8   80 1    
    19    9   10 ar   
    20    9   14 ar   
    21   10   11 ar   
    22   10   81 1    
    23   11   12 ar   
    24   11   71 1    
    25   12   13 ar   
    26   12   82 1    
    27   13   14 ar   
    28   13   15 1    
    29   14   83 1    
    30   15   16 1    
    31   15   84 1    
    32   15   85 1    
    33   16   17 1    
    34   17   18 1    
    35   17   86 1    
    36   17   87 1    
    37   18   19 1    
    38   18   37 1    
    39   18   88 1    
    40   19   20 am   BACKBONE|DICT|INTERRES
    41   19   89 1    
    42   20   21 2    
    43   20   22 1    
    44   22   23 1    
    45   22   24 1    
    46   22   90 1    
    47   23   91 1    
    48   23   92 1    
    49   23   93 1    
    50   24   25 am   BACKBONE|DICT|INTERRES
    51   24   94 1    
    52   25   26 2    
    53   25   27 1    
    54   27   28 1    
    55   27   29 1    
    56   27   95 1    
    57   28   96 1    
    58   28   97 1    
    59   28   98 1    
    60   29   30 am   BACKBONE|DICT|INTERRES
    61   29   99 1    
    62   30   31 2    
    63   30   32 1    
    64   32   33 1    
    65   32   34 1    
    66   32  100 1    
    67   33  101 1    
    68   33  102 1    
    69   33  103 1    
    70   34   35 am   BACKBONE|DICT|INTERRES
    71   34  104 1    
    72   35   36 2    
    73   37   38 2    
    74   37   39 am   BACKBONE|DICT|INTERRES
    75   39   40 1    
    76   39  105 1    
    77   40   41 1    
    78   40   42 1    
    79   40  106 1    
    80   41  107 1    
    81   41  108 1    
    82   41  109 1    
    83   42   43 2    
    84   42   44 am   BACKBONE|DICT|INTERRES
    85   44   45 1    
    86   44  110 1    
    87   45   46 1    
    88   45   47 1    
    89   45  111 1    
    90   46  112 1    
    91   46  113 1    
    92   46  114 1    
    93   47   48 2    
    94   47   49 am   BACKBONE|DICT|INTERRES
    95   49   50 1    
    96   49  115 1    
    97   50   51 1    
    98   50   52 1    
    99   50  116 1    
   100   51  117 1    
   101   51  118 1    
   102   51  119 1    
   103   52   53 2    
   104   52   54 am   BACKBONE|DICT|INTERRES
   105   54   55 1    
   106   54  120 1    
   107   55   56 1    
   108   55   57 1    
   109   55  121 1    
   110   56  122 1    
   111   56  123 1    
   112   56  124 1    
   113   57   58 2    
   114   57   59 am   BACKBONE|DICT|INTERRES
   115   59   60 1    
   116   59  125 1    
   117   60   61 1    
   118   60   62 1    
   119   60  126 1    
   120   61  127 1    
   121   61  128 1    
   122   61  129 1    
   123   62   63 2    
   124   62   64 am   BACKBONE|DICT|INTERRES
   125   64   65 1    
   126   64  130 1    
   127   65   66 1    
   128   65   69 1    
   129   65  131 1    
   130   66   67 am   BACKBONE|DICT|INTERRES
   131   66   68 2    
   132   67  132 1    
   133   67  133 1    
   134   69   70 1    
   135   69  134 1    
   136   69  135 1    
   137   70   71 1    
   138   71  136 1    
   139   71  137 1    
@<TRIPOS>SUBSTRUCTURE
     1 UNK         1 GROUP             0       ****    0 ROOT    
