@<TRIPOS>MOLECULE
3R137
137   139    1
SMALL
USER_CHARGES


@<TRIPOS>ATOM
      1 CA         23.7191   -5.9053   -3.4814 C.3       0 UNK        -0.2020 
      2 C          24.8849   -5.1795   -2.8296 C.2       0 UNK         0.4855 
      3 O          25.3506   -4.1734   -3.3667 O.2       0 UNK        -0.5197 
      4 N          25.3395   -5.6600   -1.6624 N.am      1 UNK        -0.4892 
      5 CA         26.4832   -5.1889   -0.8574 C.3       1 UNK         0.0835 
      6 C6         27.8275   -5.2767   -1.6306 C.3       12 UNK        -0.0855 
      7 S7         29.2481   -5.5642   -0.5231 S.3       12 UNK        -0.2931 
      8 C8         30.6356   -5.5986   -1.7090 C.3       12 UNK         0.0378 
      9 C9         30.8069   -4.2962   -2.4857 C.ar      12 UNK        -0.0802 
     10 C10        31.0285   -4.3326   -3.8660 C.ar      12 UNK        -0.0944 
     11 C11        31.1841   -3.1490   -4.5933 C.ar      12 UNK        -0.0787 
     12 C12        31.0988   -1.9190   -3.9337 C.ar      12 UNK        -0.0862 
     13 C13        30.8924   -1.8679   -2.5531 C.ar      12 UNK        -0.0733 
     14 C14        30.7598   -3.0588   -1.8341 C.ar      12 UNK        -0.0832 
     15 C15        30.8066   -0.5341   -1.8283 C.3       12 UNK         0.0240 
     16 S16        29.0759   -0.1200   -1.4548 S.3       12 UNK        -0.2522 
     17 C17        28.7797    1.3423   -2.5075 C.3       12 UNK        -0.0967 
     18 CA         28.7377    1.0604   -4.0330 C.3       5 UNK         0.0660 
     19 N          27.9289   -0.1128   -4.3719 N.am      5 UNK        -0.4015 
     20 C          28.0018   -0.7778   -5.5336 C.2       4 UNK         0.4946 
     21 O          28.8053   -0.5014   -6.4238 O.2       4 UNK        -0.5353 
     22 CA         26.9961   -1.9208   -5.7658 C.3       4 UNK         0.0277 
     23 CB         27.6625   -3.2793   -5.5044 C.3       4 UNK        -0.1981 
     24 N          25.7743   -1.8224   -4.9618 N.am      4 UNK        -0.4209 
     25 C          24.8913   -0.8133   -5.0161 C.2       3 UNK         0.4942 
     26 O          25.0072    0.1580   -5.7630 O.2       3 UNK        -0.5208 
     27 CA         23.7216   -0.8612   -4.0194 C.3       3 UNK         0.0250 
     28 CB         22.5874   -1.7460   -4.5605 C.3       3 UNK        -0.1990 
     29 N          24.1241   -1.3370   -2.6927 N.am      3 UNK        -0.4232 
     30 C          25.0244   -0.7358   -1.8984 C.2       2 UNK         0.4993 
     31 O          25.5845    0.3227   -2.1785 O.2       2 UNK        -0.5286 
     32 CA         25.4046   -1.4796   -0.6146 C.3       2 UNK         0.0209 
     33 CB         24.3016   -1.3512    0.4535 C.3       2 UNK        -0.1931 
     34 N          25.6661   -2.8768   -0.9489 N.am      2 UNK        -0.4546 
     35 C          26.2806   -3.7978   -0.2053 C.2       1 UNK         0.5154 
     36 O          26.6629   -3.5979    0.9485 O.2       1 UNK        -0.5181 
     37 C          28.2722    2.3258   -4.7872 C.2       5 UNK         0.5014 
     38 O          29.0590    3.2640   -4.9172 O.2       5 UNK        -0.5248 
     39 N          27.0129    2.3438   -5.2491 N.am      6 UNK        -0.4434 
     40 CA         26.3737    3.4669   -5.9383 C.3       6 UNK         0.0363 
     41 CB         25.0401    3.7695   -5.2311 C.3       6 UNK        -0.1936 
     42 C          26.1517    3.1832   -7.4359 C.2       6 UNK         0.5081 
     43 O          25.4809    3.9737   -8.1022 O.2       6 UNK        -0.5248 
     44 N          26.6889    2.0653   -7.9434 N.am      7 UNK        -0.4718 
     45 CA         26.5909    1.6462   -9.3423 C.3       7 UNK         0.0273 
     46 CB         27.0846    0.1938   -9.4520 C.3       7 UNK        -0.1935 
     47 C          27.3861    2.5586  -10.2936 C.2       7 UNK         0.5018 
     48 O          28.3388    3.2188   -9.8723 O.2       7 UNK        -0.5186 
     49 N          27.0172    2.5295  -11.5823 N.am      8 UNK        -0.4240 
     50 CA         27.6958    3.2593  -12.6624 C.3       8 UNK         0.0235 
     51 CB         26.8625    3.1508  -13.9500 C.3       8 UNK        -0.2000 
     52 C          29.1426    2.7916  -12.9167 C.2       8 UNK         0.4941 
     53 O          29.9515    3.5764  -13.4131 O.2       8 UNK        -0.5273 
     54 N          29.4408    1.5379  -12.5557 N.am      9 UNK        -0.4262 
     55 CA         30.7706    0.9353  -12.5715 C.3       9 UNK         0.0264 
     56 CB         30.8599   -0.0770  -13.7301 C.3       9 UNK        -0.1955 
     57 C          31.0439    0.3082  -11.1949 C.2       9 UNK         0.5031 
     58 O          31.3416   -0.8849  -11.1074 O.2       9 UNK        -0.5390 
     59 N          30.8959    1.1187  -10.1367 N.am      10 UNK        -0.4204 
     60 CA         31.1545    0.7391   -8.7449 C.3       10 UNK         0.0237 
     61 CB         30.6948    1.8720   -7.8120 C.3       10 UNK        -0.1985 
     62 C          32.6326    0.4043   -8.4816 C.2       10 UNK         0.4970 
     63 O          33.5201    0.9233   -9.1638 O.2       10 UNK        -0.4914 
     64 N          32.8529   -0.4438   -7.4731 N.am      11 UNK        -0.4285 
     65 CA         34.1671   -0.8907   -6.9942 C.3       11 UNK         0.1007 
     66 C          35.0350    0.2763   -6.4471 C.2       11 UNK         0.5703 
     67 N          36.3404    0.2414   -6.6782 N.am      11 UNK        -0.7361 
     68 O          34.5417    1.1840   -5.7797 O.2       11 UNK        -0.4986 
     69 C69        34.0201   -2.0004   -5.9211 C.3       12 UNK        -0.0947 
     70 S70        33.1654   -3.4961   -6.5305 S.3       12 UNK        -0.2240 
     71 C71        31.4184   -3.2008   -6.0960 C.3       12 UNK         0.0194 
     72 H72        23.4255   -6.7933   -2.9220 H         1 UNK         0.0906 
     73 H73        22.8558   -5.2440   -3.5487 H         1 UNK         0.0906 
     74 H74        23.9905   -6.2145   -4.4903 H         1 UNK         0.0906 
     75 H75        24.8663   -6.4619   -1.2675 H         1 UNK         0.3140 
     76 H76        26.5307   -5.8970   -0.0280 H         1 UNK         0.1085 
     77 H77        27.9959   -4.3809   -2.2312 H         1 UNK         0.0836 
     78 H78        27.8011   -6.1078   -2.3373 H         1 UNK         0.0836 
     79 H79        30.4870   -6.4376   -2.3907 H         1 UNK         0.0731 
     80 H80        31.5580   -5.8031   -1.1642 H         1 UNK         0.0731 
     81 H81        31.0822   -5.2830   -4.3794 H         1 UNK         0.1312 
     82 H82        31.2000   -1.0016   -4.4957 H         1 UNK         0.1406 
     83 H83        30.5961   -3.0196   -0.7656 H         1 UNK         0.1631 
     84 H84        31.2751    0.2581   -2.4139 H         1 UNK         0.0717 
     85 H85        31.3653   -0.5906   -0.8929 H         1 UNK         0.0717 
     86 H86        27.8348    1.7783   -2.1768 H         1 UNK         0.0934 
     87 H87        29.5424    2.0905   -2.2824 H         1 UNK         0.0934 
     88 H88        29.7590    0.8619   -4.3619 H         1 UNK         0.0739 
     89 H89        27.2413   -0.3872   -3.6828 H         1 UNK         0.3093 
     90 H90        26.6984   -1.8825   -6.8150 H         1 UNK         0.0818 
     91 H91        28.0229   -3.3610   -4.4782 H         1 UNK         0.0819 
     92 H92        26.9737   -4.1046   -5.6853 H         1 UNK         0.0819 
     93 H93        28.5164   -3.4235   -6.1653 H         1 UNK         0.0819 
     94 H94        25.5867   -2.6035   -4.3361 H         1 UNK         0.3041 
     95 H95        23.3419    0.1565   -3.9063 H         1 UNK         0.0784 
     96 H96        22.2571   -1.3991   -5.5407 H         1 UNK         0.0793 
     97 H97        22.9018   -2.7847   -4.6714 H         1 UNK         0.0793 
     98 H98        21.7187   -1.7256   -3.9021 H         1 UNK         0.0793 
     99 H99        23.6984   -2.1956   -2.3760 H         1 UNK         0.3024 
    100 H100       26.3267   -1.0372   -0.2306 H         1 UNK         0.1171 
    101 H101       24.6087   -1.7973    1.3994 H         1 UNK         0.0786 
    102 H102       24.0735   -0.3033    0.6527 H         1 UNK         0.0786 
    103 H103       23.3756   -1.8354    0.1419 H         1 UNK         0.0786 
    104 H104       25.4593   -3.1603   -1.9052 H         1 UNK         0.2977 
    105 H105       26.4345    1.5152   -5.1473 H         1 UNK         0.3127 
    106 H106       27.0011    4.3583   -5.8759 H         1 UNK         0.0770 
    107 H107       24.3482    2.9291   -5.3028 H         1 UNK         0.0814 
    108 H108       24.5477    4.6374   -5.6715 H         1 UNK         0.0814 
    109 H109       25.1928    3.9882   -4.1742 H         1 UNK         0.0814 
    110 H110       27.2456    1.4837   -7.3339 H         1 UNK         0.2983 
    111 H111       25.5380    1.6840   -9.6307 H         1 UNK         0.0947 
    112 H112       27.0017   -0.1803  -10.4730 H         1 UNK         0.0806 
    113 H113       26.4949   -0.4701   -8.8199 H         1 UNK         0.0806 
    114 H114       28.1289    0.0987   -9.1519 H         1 UNK         0.0806 
    115 H115       26.2252    1.9622  -11.8503 H         1 UNK         0.3000 
    116 H116       27.7435    4.3113  -12.3725 H         1 UNK         0.0850 
    117 H117       27.3284    3.7082  -14.7641 H         1 UNK         0.0810 
    118 H118       25.8617    3.5607  -13.8120 H         1 UNK         0.0810 
    119 H119       26.7610    2.1163  -14.2807 H         1 UNK         0.0810 
    120 H120       28.7082    0.9760  -12.1462 H         1 UNK         0.3040 
    121 H121       31.5360    1.6993  -12.7244 H         1 UNK         0.0766 
    122 H122       31.8489   -0.5351  -13.7736 H         1 UNK         0.0812 
    123 H123       30.6850    0.4068  -14.6911 H         1 UNK         0.0812 
    124 H124       30.1304   -0.8805  -13.6217 H         1 UNK         0.0812 
    125 H125       30.6229    2.0788  -10.2970 H         1 UNK         0.3205 
    126 H126       30.5596   -0.1513   -8.5299 H         1 UNK         0.0754 
    127 H127       31.1948    2.8142   -8.0394 H         1 UNK         0.0769 
    128 H128       30.9047    1.6344   -6.7682 H         1 UNK         0.0769 
    129 H129       29.6203    2.0337   -7.8847 H         1 UNK         0.0769 
    130 H130       32.0612   -0.7905   -6.9557 H         1 UNK         0.2981 
    131 H131       34.6861   -1.3175   -7.8548 H         1 UNK         0.0541 
    132 H132       36.7567   -0.5056   -7.2123 H         1 UNK         0.3459 
    133 H133       36.9210    0.9819   -6.3167 H         1 UNK         0.3459 
    134 H134       33.5245   -1.6170   -5.0303 H         1 UNK         0.0612 
    135 H135       35.0078   -2.3238   -5.5874 H         1 UNK         0.0612 
    136 H136       31.0579   -2.2892   -6.5719 H         1 UNK         0.0624 
    137 H137       30.8257   -4.0103   -6.5240 H         1 UNK         0.0624 
@<TRIPOS>BOND
     1    1    2 1    
     2    1   72 1    
     3    1   73 1    
     4    1   74 1    
     5    2    3 2    
     6    2    4 am   BACKBONE|DICT|INTERRES
     7    4    5 1    
     8    4   75 1    
     9    5    6 1    
    10    5   35 1    
    11    5   76 1    
    12    6    7 1    
    13    6   77 1    
    14    6   78 1    
    15    7    8 1    
    16    8    9 1    
    17    8   79 1    
    18    8   80 1    
    19    9   10 ar   
    20    9   14 ar   
    21   10   11 ar   
    22   10   81 1    
    23   11   12 ar   
    24   11   71 1    
    25   12   13 ar   
    26   12   82 1    
    27   13   14 ar   
    28   13   15 1    
    29   14   83 1    
    30   15   16 1    
    31   15   84 1    
    32   15   85 1    
    33   16   17 1    
    34   17   18 1    
    35   17   86 1    
    36   17   87 1    
    37   18   19 1    
    38   18   37 1    
    39   18   88 1    
    40   19   20 am   BACKBONE|DICT|INTERRES
    41   19   89 1    
    42   20   21 2    
    43   20   22 1    
    44   22   23 1    
    45   22   24 1    
    46   22   90 1    
    47   23   91 1    
    48   23   92 1    
    49   23   93 1    
    50   24   25 am   BACKBONE|DICT|INTERRES
    51   24   94 1    
    52   25   26 2    
    53   25   27 1    
    54   27   28 1    
    55   27   29 1    
    56   27   95 1    
    57   28   96 1    
    58   28   97 1    
    59   28   98 1    
    60   29   30 am   BACKBONE|DICT|INTERRES
    61   29   99 1    
    62   30   31 2    
    63   30   32 1    
    64   32   33 1    
    65   32   34 1    
    66   32  100 1    
    67   33  101 1    
    68   33  102 1    
    69   33  103 1    
    70   34   35 am   BACKBONE|DICT|INTERRES
    71   34  104 1    
    72   35   36 2    
    73   37   38 2    
    74   37   39 am   BACKBONE|DICT|INTERRES
    75   39   40 1    
    76   39  105 1    
    77   40   41 1    
    78   40   42 1    
    79   40  106 1    
    80   41  107 1    
    81   41  108 1    
    82   41  109 1    
    83   42   43 2    
    84   42   44 am   BACKBONE|DICT|INTERRES
    85   44   45 1    
    86   44  110 1    
    87   45   46 1    
    88   45   47 1    
    89   45  111 1    
    90   46  112 1    
    91   46  113 1    
    92   46  114 1    
    93   47   48 2    
    94   47   49 am   BACKBONE|DICT|INTERRES
    95   49   50 1    
    96   49  115 1    
    97   50   51 1    
    98   50   52 1    
    99   50  116 1    
   100   51  117 1    
   101   51  118 1    
   102   51  119 1    
   103   52   53 2    
   104   52   54 am   BACKBONE|DICT|INTERRES
   105   54   55 1    
   106   54  120 1    
   107   55   56 1    
   108   55   57 1    
   109   55  121 1    
   110   56  122 1    
   111   56  123 1    
   112   56  124 1    
   113   57   58 2    
   114   57   59 am   BACKBONE|DICT|INTERRES
   115   59   60 1    
   116   59  125 1    
   117   60   61 1    
   118   60   62 1    
   119   60  126 1    
   120   61  127 1    
   121   61  128 1    
   122   61  129 1    
   123   62   63 2    
   124   62   64 am   BACKBONE|DICT|INTERRES
   125   64   65 1    
   126   64  130 1    
   127   65   66 1    
   128   65   69 1    
   129   65  131 1    
   130   66   67 am   BACKBONE|DICT|INTERRES
   131   66   68 2    
   132   67  132 1    
   133   67  133 1    
   134   69   70 1    
   135   69  134 1    
   136   69  135 1    
   137   70   71 1    
   138   71  136 1    
   139   71  137 1    
@<TRIPOS>SUBSTRUCTURE
     1 UNK         1 GROUP             0       ****    0 ROOT    
