@<TRIPOS>MOLECULE
3R137
137   139    1
SMALL
USER_CHARGES


@<TRIPOS>ATOM
      1 CA         25.6219   -6.6280   -0.0375 C.3       0 UNK        -0.2020 
      2 C          26.3399   -5.3129   -0.2989 C.2       0 UNK         0.4855 
      3 O          26.4317   -4.4740    0.5987 O.2       0 UNK        -0.5197 
      4 N          26.8477   -5.1187   -1.5224 N.am      1 UNK        -0.4892 
      5 CA         27.5708   -3.9199   -1.9605 C.3       1 UNK         0.0835 
      6 C6         28.4976   -4.2130   -3.1691 C.3       12 UNK        -0.0855 
      7 S7         29.9025   -5.3049   -2.7437 S.3       12 UNK        -0.2931 
      8 C8         31.0870   -4.1790   -1.9191 C.3       12 UNK         0.0378 
      9 C9         31.4079   -2.9504   -2.7592 C.ar      12 UNK        -0.0802 
     10 C10        32.2691   -3.0445   -3.8558 C.ar      12 UNK        -0.0944 
     11 C11        32.4840   -1.9371   -4.6817 C.ar      12 UNK        -0.0787 
     12 C12        31.8376   -0.7278   -4.3995 C.ar      12 UNK        -0.0862 
     13 C13        30.9683   -0.6230   -3.3091 C.ar      12 UNK        -0.0733 
     14 C14        30.7917   -1.7295   -2.4711 C.ar      12 UNK        -0.0832 
     15 C15        30.1788    0.6622   -3.0748 C.3       12 UNK         0.0240 
     16 S16        28.4056    0.3146   -2.8139 S.3       12 UNK        -0.2522 
     17 C17        27.5757    1.7330   -3.5924 C.3       12 UNK        -0.0967 
     18 CA         27.2418    1.4705   -5.0809 C.3       5 UNK         0.0660 
     19 N          26.4158    0.2705   -5.2993 N.am      5 UNK        -0.4015 
     20 C          26.1448   -0.2679   -6.5005 C.2       4 UNK         0.4946 
     21 O          26.5605    0.2078   -7.5590 O.2       4 UNK        -0.5353 
     22 CA         25.2474   -1.5145   -6.5571 C.3       4 UNK         0.0277 
     23 CB         26.0787   -2.7784   -6.8253 C.3       4 UNK        -0.1981 
     24 N          24.4735   -1.7058   -5.3310 N.am      4 UNK        -0.4209 
     25 C          23.2293   -1.2492   -5.1348 C.2       3 UNK         0.4942 
     26 O          22.5931   -0.6154   -5.9775 O.2       3 UNK        -0.5208 
     27 CA         22.5775   -1.5430   -3.7701 C.3       3 UNK         0.0250 
     28 CB         21.7476   -2.8351   -3.8407 C.3       3 UNK        -0.1990 
     29 N          23.5352   -1.6451   -2.6652 N.am      3 UNK        -0.4232 
     30 C          24.2780   -0.6276   -2.2097 C.2       2 UNK         0.4993 
     31 O          24.2243    0.5162   -2.6627 O.2       2 UNK        -0.5286 
     32 CA         25.2729   -0.9397   -1.0794 C.3       2 UNK         0.0209 
     33 CB         24.5726   -0.8496    0.2860 C.3       2 UNK        -0.1931 
     34 N          25.9913   -2.2204   -1.1682 N.am      2 UNK        -0.4546 
     35 C          26.6017   -2.7502   -2.2389 C.2       1 UNK         0.5154 
     36 O          26.4299   -2.3564   -3.3934 O.2       1 UNK        -0.5181 
     37 C          26.6623    2.7435   -5.7337 C.2       5 UNK         0.5014 
     38 O          27.4255    3.6715   -6.0009 O.2       5 UNK        -0.5248 
     39 N          25.3597    2.7492   -6.0562 N.am      6 UNK        -0.4434 
     40 CA         24.7032    3.7594   -6.8943 C.3       6 UNK         0.0363 
     41 CB         23.1956    3.4651   -6.9457 C.3       6 UNK        -0.1936 
     42 C          25.2825    3.8517   -8.3229 C.2       6 UNK         0.5081 
     43 O          25.2171    4.9211   -8.9288 O.2       6 UNK        -0.5248 
     44 N          25.8617    2.7492   -8.8186 N.am      7 UNK        -0.4718 
     45 CA         26.6145    2.6630  -10.0727 C.3       7 UNK         0.0273 
     46 CB         26.0020    1.5408  -10.9306 C.3       7 UNK        -0.1935 
     47 C          28.1131    2.4111   -9.8044 C.2       7 UNK         0.5018 
     48 O          28.8220    1.9609  -10.7057 O.2       7 UNK        -0.5186 
     49 N          28.5639    2.6635   -8.5636 N.am      8 UNK        -0.4240 
     50 CA         29.9123    2.4453   -8.0192 C.3       8 UNK         0.0235 
     51 CB         30.9340    3.3516   -8.7362 C.3       8 UNK        -0.2000 
     52 C          30.3669    0.9699   -7.9880 C.2       8 UNK         0.4941 
     53 O          31.5580    0.7204   -7.7889 O.2       8 UNK        -0.5273 
     54 N          29.4321    0.0295   -8.2089 N.am      9 UNK        -0.4262 
     55 CA         29.5746   -1.4336   -8.2717 C.3       9 UNK         0.0264 
     56 CB         29.5175   -2.0277   -6.8543 C.3       9 UNK        -0.1955 
     57 C          30.7848   -1.9511   -9.0814 C.2       9 UNK         0.5031 
     58 O          31.3308   -3.0073   -8.7578 O.2       9 UNK        -0.5390 
     59 N          31.1815   -1.1911  -10.1123 N.am      10 UNK        -0.4204 
     60 CA         32.3435   -1.4014  -10.9811 C.3       10 UNK         0.0237 
     61 CB         32.1659   -2.6749  -11.8375 C.3       10 UNK        -0.1985 
     62 C          33.7100   -1.3485  -10.2585 C.2       10 UNK         0.4970 
     63 O          34.6588   -1.9714  -10.7401 O.2       10 UNK        -0.4914 
     64 N          33.8201   -0.5841   -9.1608 N.am      11 UNK        -0.4285 
     65 CA         35.1042   -0.2861   -8.4970 C.3       11 UNK         0.1007 
     66 C          35.2212    1.1620   -7.9454 C.2       11 UNK         0.5703 
     67 N          34.1310    1.8842   -7.7216 N.am      11 UNK        -0.7361 
     68 O          36.3305    1.6510   -7.7428 O.2       11 UNK        -0.4986 
     69 C69        35.5500   -1.3907   -7.4905 C.3       12 UNK        -0.0947 
     70 S70        34.9192   -1.2272   -5.7822 S.3       12 UNK        -0.2240 
     71 C71        33.3250   -2.0708   -5.9418 C.3       12 UNK         0.0194 
     72 H72        25.6192   -7.2735   -0.9157 H         1 UNK         0.0906 
     73 H73        26.1085   -7.1650    0.7762 H         1 UNK         0.0906 
     74 H74        24.5875   -6.4399    0.2488 H         1 UNK         0.0906 
     75 H75        26.7383   -5.8378   -2.2238 H         1 UNK         0.3140 
     76 H76        28.2095   -3.5866   -1.1397 H         1 UNK         0.1085 
     77 H77        27.9287   -4.6877   -3.9706 H         1 UNK         0.0836 
     78 H78        28.8845   -3.2927   -3.6087 H         1 UNK         0.0836 
     79 H79        32.0075   -4.7267   -1.7119 H         1 UNK         0.0731 
     80 H80        30.6862   -3.8863   -0.9476 H         1 UNK         0.0731 
     81 H81        32.7337   -3.9925   -4.0908 H         1 UNK         0.1312 
     82 H82        31.9769    0.1137   -5.0652 H         1 UNK         0.1406 
     83 H83        30.1168   -1.6571   -1.6294 H         1 UNK         0.1631 
     84 H84        30.2927    1.3341   -3.9270 H         1 UNK         0.0717 
     85 H85        30.5783    1.1843   -2.2047 H         1 UNK         0.0717 
     86 H86        26.6639    1.9424   -3.0295 H         1 UNK         0.0934 
     87 H87        28.2104    2.6148   -3.4799 H         1 UNK         0.0934 
     88 H88        28.1876    1.2786   -5.5915 H         1 UNK         0.0739 
     89 H89        26.0811   -0.2000   -4.4690 H         1 UNK         0.3093 
     90 H90        24.5680   -1.3802   -7.4017 H         1 UNK         0.0818 
     91 H91        26.6605   -2.6771   -7.7417 H         1 UNK         0.0819 
     92 H92        26.7739   -2.9882   -6.0120 H         1 UNK         0.0819 
     93 H93        25.4382   -3.6519   -6.9470 H         1 UNK         0.0819 
     94 H94        24.9639   -2.1578   -4.5622 H         1 UNK         0.3041 
     95 H95        21.9011   -0.7146   -3.5483 H         1 UNK         0.0784 
     96 H96        21.0058   -2.7792   -4.6388 H         1 UNK         0.0793 
     97 H97        22.3730   -3.7069   -4.0376 H         1 UNK         0.0793 
     98 H98        21.2067   -3.0115   -2.9107 H         1 UNK         0.0793 
     99 H99        23.6600   -2.5543   -2.2439 H         1 UNK         0.3024 
    100 H100       26.0320   -0.1564   -1.1134 H         1 UNK         0.1171 
    101 H101       25.2895   -0.9134    1.1049 H         1 UNK         0.0786 
    102 H102       24.0440    0.0987    0.3951 H         1 UNK         0.0786 
    103 H103       23.8418   -1.6486    0.4177 H         1 UNK         0.0786 
    104 H104       26.1419   -2.7076   -0.2895 H         1 UNK         0.2977 
    105 H105       24.8002    1.9524   -5.7867 H         1 UNK         0.3127 
    106 H106       24.8499    4.7315   -6.4189 H         1 UNK         0.0770 
    107 H107       22.9894    2.4884   -7.3860 H         1 UNK         0.0814 
    108 H108       22.6725    4.2107   -7.5463 H         1 UNK         0.0814 
    109 H109       22.7522    3.4850   -5.9499 H         1 UNK         0.0814 
    110 H110       25.8846    1.9070   -8.2491 H         1 UNK         0.2983 
    111 H111       26.5452    3.6004  -10.6284 H         1 UNK         0.0947 
    112 H112       26.4938    1.4725  -11.9019 H         1 UNK         0.0806 
    113 H113       24.9434    1.7198  -11.1186 H         1 UNK         0.0806 
    114 H114       26.0965    0.5681  -10.4457 H         1 UNK         0.0806 
    115 H115       27.9037    3.0536   -7.8995 H         1 UNK         0.3000 
    116 H116       29.8687    2.7637   -6.9768 H         1 UNK         0.0850 
    117 H117       31.8804    3.3779   -8.1979 H         1 UNK         0.0810 
    118 H118       30.5776    4.3798   -8.7992 H         1 UNK         0.0810 
    119 H119       31.1432    3.0063   -9.7492 H         1 UNK         0.0810 
    120 H120       28.4767    0.3532   -8.3210 H         1 UNK         0.3040 
    121 H121       28.6918   -1.7849   -8.8070 H         1 UNK         0.0766 
    122 H122       30.4506   -1.8609   -6.3324 H         1 UNK         0.0812 
    123 H123       29.3519   -3.1051   -6.8828 H         1 UNK         0.0812 
    124 H124       28.7265   -1.5854   -6.2516 H         1 UNK         0.0812 
    125 H125       30.6624   -0.3387  -10.2778 H         1 UNK         0.3205 
    126 H126       32.3501   -0.5532  -11.6670 H         1 UNK         0.0754 
    127 H127       32.9401   -2.7460  -12.6025 H         1 UNK         0.0769 
    128 H128       31.2054   -2.6761  -12.3528 H         1 UNK         0.0769 
    129 H129       32.2236   -3.5805  -11.2330 H         1 UNK         0.0769 
    130 H130       33.0004   -0.1158   -8.7871 H         1 UNK         0.2981 
    131 H131       35.8552   -0.2927   -9.2899 H         1 UNK         0.0541 
    132 H132       33.2015    1.4801   -7.7936 H         1 UNK         0.3459 
    133 H133       34.2403    2.8230   -7.3748 H         1 UNK         0.3459 
    134 H134       36.6385   -1.3766   -7.4167 H         1 UNK         0.0612 
    135 H135       35.3036   -2.3824   -7.8729 H         1 UNK         0.0612 
    136 H136       32.7804   -1.6382   -6.7805 H         1 UNK         0.0624 
    137 H137       33.4926   -3.1198   -6.1906 H         1 UNK         0.0624 
@<TRIPOS>BOND
     1    1    2 1    
     2    1   72 1    
     3    1   73 1    
     4    1   74 1    
     5    2    3 2    
     6    2    4 am   BACKBONE|DICT|INTERRES
     7    4    5 1    
     8    4   75 1    
     9    5    6 1    
    10    5   35 1    
    11    5   76 1    
    12    6    7 1    
    13    6   77 1    
    14    6   78 1    
    15    7    8 1    
    16    8    9 1    
    17    8   79 1    
    18    8   80 1    
    19    9   10 ar   
    20    9   14 ar   
    21   10   11 ar   
    22   10   81 1    
    23   11   12 ar   
    24   11   71 1    
    25   12   13 ar   
    26   12   82 1    
    27   13   14 ar   
    28   13   15 1    
    29   14   83 1    
    30   15   16 1    
    31   15   84 1    
    32   15   85 1    
    33   16   17 1    
    34   17   18 1    
    35   17   86 1    
    36   17   87 1    
    37   18   19 1    
    38   18   37 1    
    39   18   88 1    
    40   19   20 am   BACKBONE|DICT|INTERRES
    41   19   89 1    
    42   20   21 2    
    43   20   22 1    
    44   22   23 1    
    45   22   24 1    
    46   22   90 1    
    47   23   91 1    
    48   23   92 1    
    49   23   93 1    
    50   24   25 am   BACKBONE|DICT|INTERRES
    51   24   94 1    
    52   25   26 2    
    53   25   27 1    
    54   27   28 1    
    55   27   29 1    
    56   27   95 1    
    57   28   96 1    
    58   28   97 1    
    59   28   98 1    
    60   29   30 am   BACKBONE|DICT|INTERRES
    61   29   99 1    
    62   30   31 2    
    63   30   32 1    
    64   32   33 1    
    65   32   34 1    
    66   32  100 1    
    67   33  101 1    
    68   33  102 1    
    69   33  103 1    
    70   34   35 am   BACKBONE|DICT|INTERRES
    71   34  104 1    
    72   35   36 2    
    73   37   38 2    
    74   37   39 am   BACKBONE|DICT|INTERRES
    75   39   40 1    
    76   39  105 1    
    77   40   41 1    
    78   40   42 1    
    79   40  106 1    
    80   41  107 1    
    81   41  108 1    
    82   41  109 1    
    83   42   43 2    
    84   42   44 am   BACKBONE|DICT|INTERRES
    85   44   45 1    
    86   44  110 1    
    87   45   46 1    
    88   45   47 1    
    89   45  111 1    
    90   46  112 1    
    91   46  113 1    
    92   46  114 1    
    93   47   48 2    
    94   47   49 am   BACKBONE|DICT|INTERRES
    95   49   50 1    
    96   49  115 1    
    97   50   51 1    
    98   50   52 1    
    99   50  116 1    
   100   51  117 1    
   101   51  118 1    
   102   51  119 1    
   103   52   53 2    
   104   52   54 am   BACKBONE|DICT|INTERRES
   105   54   55 1    
   106   54  120 1    
   107   55   56 1    
   108   55   57 1    
   109   55  121 1    
   110   56  122 1    
   111   56  123 1    
   112   56  124 1    
   113   57   58 2    
   114   57   59 am   BACKBONE|DICT|INTERRES
   115   59   60 1    
   116   59  125 1    
   117   60   61 1    
   118   60   62 1    
   119   60  126 1    
   120   61  127 1    
   121   61  128 1    
   122   61  129 1    
   123   62   63 2    
   124   62   64 am   BACKBONE|DICT|INTERRES
   125   64   65 1    
   126   64  130 1    
   127   65   66 1    
   128   65   69 1    
   129   65  131 1    
   130   66   67 am   BACKBONE|DICT|INTERRES
   131   66   68 2    
   132   67  132 1    
   133   67  133 1    
   134   69   70 1    
   135   69  134 1    
   136   69  135 1    
   137   70   71 1    
   138   71  136 1    
   139   71  137 1    
@<TRIPOS>SUBSTRUCTURE
     1 UNK         1 GROUP             0       ****    0 ROOT    
