@<TRIPOS>MOLECULE
3R137
137   139    1
SMALL
USER_CHARGES


@<TRIPOS>ATOM
      1 CA         26.3891   -3.5555    1.7487 C.3       0 UNK        -0.2020 
      2 C          26.8126   -3.0703    0.3705 C.2       0 UNK         0.4855 
      3 O          26.0523   -3.2200   -0.5853 O.2       0 UNK        -0.5197 
      4 N          28.0160   -2.4850    0.2710 N.am      1 UNK        -0.4892 
      5 CA         28.6384   -1.9601   -0.9586 C.3       1 UNK         0.0835 
      6 C6         28.9482   -3.0546   -2.0178 C.3       12 UNK        -0.0855 
      7 S7         29.8878   -4.4746   -1.3435 S.3       12 UNK        -0.2931 
      8 C8         31.4880   -4.3474   -2.2207 C.3       12 UNK         0.0378 
      9 C9         31.4337   -4.4878   -3.7447 C.ar      12 UNK        -0.0802 
     10 C10        32.5652   -4.1292   -4.4833 C.ar      12 UNK        -0.0944 
     11 C11        32.5539   -4.1719   -5.8803 C.ar      12 UNK        -0.0787 
     12 C12        31.3932   -4.5753   -6.5459 C.ar      12 UNK        -0.0862 
     13 C13        30.2559   -4.9513   -5.8256 C.ar      12 UNK        -0.0733 
     14 C14        30.2961   -4.9372   -4.4281 C.ar      12 UNK        -0.0832 
     15 C15        28.9738   -5.3287   -6.5636 C.3       12 UNK         0.0240 
     16 S16        27.4814   -4.5110   -5.8914 S.3       12 UNK        -0.2522 
     17 C17        27.9599   -2.7491   -5.9144 C.3       12 UNK        -0.0967 
     18 CA         27.2178   -1.9436   -7.0028 C.3       5 UNK         0.0660 
     19 N          25.7699   -1.9283   -6.7870 N.am      5 UNK        -0.4015 
     20 C          24.8710   -1.3023   -7.5588 C.2       4 UNK         0.4946 
     21 O          25.1547   -0.7316   -8.6126 O.2       4 UNK        -0.5353 
     22 CA         23.4259   -1.2367   -7.0266 C.3       4 UNK         0.0277 
     23 CB         22.5857   -2.3793   -7.6180 C.3       4 UNK        -0.1981 
     24 N          23.3193   -1.2563   -5.5583 N.am      4 UNK        -0.4209 
     25 C          23.9220   -0.3908   -4.7282 C.2       3 UNK         0.4942 
     26 O          24.6386    0.5309   -5.1242 O.2       3 UNK        -0.5208 
     27 CA         23.7382   -0.6015   -3.2167 C.3       3 UNK         0.0250 
     28 CB         23.5334   -2.0774   -2.8188 C.3       3 UNK        -0.1990 
     29 N          24.9236   -0.0831   -2.5388 N.am      3 UNK        -0.4232 
     30 C          24.9495    0.6836   -1.4471 C.2       2 UNK         0.4993 
     31 O          23.9446    1.0022   -0.8079 O.2       2 UNK        -0.5286 
     32 CA         26.3462    1.1577   -0.9933 C.3       2 UNK         0.0209 
     33 CB         26.2866    2.1060    0.2192 C.3       2 UNK        -0.1931 
     34 N          27.2268    0.0317   -0.6687 N.am      2 UNK        -0.4546 
     35 C          27.8421   -0.7710   -1.5505 C.2       1 UNK         0.5154 
     36 O          27.7692   -0.6079   -2.7716 O.2       1 UNK        -0.5181 
     37 C          27.8246   -0.5295   -7.0972 C.2       5 UNK         0.5014 
     38 O          28.6975   -0.3238   -7.9361 O.2       5 UNK        -0.5248 
     39 N          27.3431    0.4145   -6.2720 N.am      6 UNK        -0.4434 
     40 CA         27.8081    1.8047   -6.2409 C.3       6 UNK         0.0363 
     41 CB         27.3833    2.4615   -4.9179 C.3       6 UNK        -0.1936 
     42 C          27.3353    2.6358   -7.4463 C.2       6 UNK         0.5081 
     43 O          27.9382    3.6699   -7.7355 O.2       6 UNK        -0.5248 
     44 N          26.2758    2.1840   -8.1317 N.am      7 UNK        -0.4718 
     45 CA         25.8491    2.7349   -9.4182 C.3       7 UNK         0.0273 
     46 CB         24.3423    2.4979   -9.6119 C.3       7 UNK        -0.1935 
     47 C          26.6573    2.1223  -10.5740 C.2       7 UNK         0.5018 
     48 O          26.9639    2.8287  -11.5350 O.2       7 UNK        -0.5186 
     49 N          26.9828    0.8261  -10.4629 N.am      8 UNK        -0.4240 
     50 CA         27.7442    0.0672  -11.4550 C.3       8 UNK         0.0235 
     51 CB         27.5903   -1.4374  -11.1780 C.3       8 UNK        -0.2000 
     52 C          29.2316    0.4555  -11.5238 C.2       8 UNK         0.4941 
     53 O          29.7687    0.5485  -12.6290 O.2       8 UNK        -0.5273 
     54 N          29.8771    0.6570  -10.3679 N.am      9 UNK        -0.4262 
     55 CA         31.3056    0.9504  -10.2519 C.3       9 UNK         0.0264 
     56 CB         32.0944   -0.3730  -10.2455 C.3       9 UNK        -0.1955 
     57 C          31.5841    1.7551   -8.9769 C.2       9 UNK         0.5031 
     58 O          30.7512    1.7905   -8.0721 O.2       9 UNK        -0.5390 
     59 N          32.7789    2.3568   -8.8985 N.am      10 UNK        -0.4204 
     60 CA         33.2398    3.1521   -7.7511 C.3       10 UNK         0.0237 
     61 CB         34.5937    3.7960   -8.0929 C.3       10 UNK        -0.1985 
     62 C          33.3361    2.3684   -6.4261 C.2       10 UNK         0.4970 
     63 O          33.2425    2.9780   -5.3601 O.2       10 UNK        -0.4914 
     64 N          33.5167    1.0453   -6.5163 N.am      11 UNK        -0.4285 
     65 CA         33.5057    0.1070   -5.3862 C.3       11 UNK         0.1007 
     66 C          32.0951   -0.2077   -4.8039 C.2       11 UNK         0.5703 
     67 N          30.9999    0.1828   -5.4452 N.am      11 UNK        -0.7361 
     68 O          31.9964   -0.7899   -3.7268 O.2       11 UNK        -0.4986 
     69 C69        34.3198   -1.1720   -5.7144 C.3       12 UNK        -0.0947 
     70 S70        33.7517   -2.0508   -7.2137 S.3       12 UNK        -0.2240 
     71 C71        33.7934   -3.7885   -6.6750 C.3       12 UNK         0.0194 
     72 H72        26.2058   -4.6295    1.7266 H         1 UNK         0.0906 
     73 H73        27.1489   -3.3572    2.5044 H         1 UNK         0.0906 
     74 H74        25.4684   -3.0591    2.0543 H         1 UNK         0.0906 
     75 H75        28.5886   -2.4095    1.1009 H         1 UNK         0.3140 
     76 H76        29.5960   -1.5352   -0.6532 H         1 UNK         0.1085 
     77 H77        29.5067   -2.6179   -2.8484 H         1 UNK         0.0836 
     78 H78        28.0231   -3.4394   -2.4510 H         1 UNK         0.0836 
     79 H79        31.9369   -3.3855   -1.9667 H         1 UNK         0.0731 
     80 H80        32.1559   -5.1145   -1.8270 H         1 UNK         0.0731 
     81 H81        33.4552   -3.8004   -3.9652 H         1 UNK         0.1312 
     82 H82        31.3758   -4.5854   -7.6274 H         1 UNK         0.1406 
     83 H83        29.4125   -5.2354   -3.8832 H         1 UNK         0.1631 
     84 H84        28.8395   -6.4096   -6.5094 H         1 UNK         0.0717 
     85 H85        29.0523   -5.0779   -7.6227 H         1 UNK         0.0717 
     86 H86        27.7600   -2.3325   -4.9252 H         1 UNK         0.0934 
     87 H87        29.0387   -2.6610   -6.0539 H         1 UNK         0.0934 
     88 H88        27.3902   -2.4307   -7.9646 H         1 UNK         0.0739 
     89 H89        25.4424   -2.3952   -5.9550 H         1 UNK         0.3093 
     90 H90        23.0043   -0.2892   -7.3687 H         1 UNK         0.0818 
     91 H91        21.5356   -2.2861   -7.3405 H         1 UNK         0.0819 
     92 H92        22.6314   -2.3725   -8.7082 H         1 UNK         0.0819 
     93 H93        22.9378   -3.3560   -7.2836 H         1 UNK         0.0819 
     94 H94        22.7475   -1.9858   -5.1571 H         1 UNK         0.3041 
     95 H95        22.8588   -0.0262   -2.9206 H         1 UNK         0.0784 
     96 H96        22.5979   -2.4768   -3.2113 H         1 UNK         0.0793 
     97 H97        24.3479   -2.7100   -3.1752 H         1 UNK         0.0793 
     98 H98        23.4905   -2.1856   -1.7346 H         1 UNK         0.0793 
     99 H99        25.8131   -0.2786   -2.9886 H         1 UNK         0.3024 
    100 H100       26.7814    1.7135   -1.8266 H         1 UNK         0.1171 
    101 H101       25.6660    2.9770    0.0038 H         1 UNK         0.0786 
    102 H102       27.2777    2.4754    0.4833 H         1 UNK         0.0786 
    103 H103       25.8660    1.6144    1.0974 H         1 UNK         0.0786 
    104 H104       27.3022   -0.2094    0.3090 H         1 UNK         0.2977 
    105 H105       26.5505    0.2001   -5.6756 H         1 UNK         0.3127 
    106 H106       28.8978    1.7976   -6.2679 H         1 UNK         0.0770 
    107 H107       26.2993    2.5309   -4.8267 H         1 UNK         0.0814 
    108 H108       27.7623    1.9027   -4.0627 H         1 UNK         0.0814 
    109 H109       27.7804    3.4746   -4.8435 H         1 UNK         0.0814 
    110 H110       25.8345    1.3243   -7.8318 H         1 UNK         0.2983 
    111 H111       26.0211    3.8138   -9.4249 H         1 UNK         0.0947 
    112 H112       23.9970    2.9481  -10.5435 H         1 UNK         0.0806 
    113 H113       23.7637    2.9437   -8.8028 H         1 UNK         0.0806 
    114 H114       24.0958    1.4370   -9.6552 H         1 UNK         0.0806 
    115 H115       26.6412    0.3116   -9.6588 H         1 UNK         0.3000 
    116 H116       27.3057    0.2729  -12.4340 H         1 UNK         0.0850 
    117 H117       28.0872   -2.0275  -11.9491 H         1 UNK         0.0810 
    118 H118       26.5415   -1.7349  -11.1652 H         1 UNK         0.0810 
    119 H119       28.0300   -1.7182  -10.2210 H         1 UNK         0.0810 
    120 H120       29.3872    0.5530   -9.4785 H         1 UNK         0.3040 
    121 H121       31.6201    1.5597  -11.1019 H         1 UNK         0.0766 
    122 H122       33.1667   -0.2020  -10.1446 H         1 UNK         0.0812 
    123 H123       31.9446   -0.9289  -11.1711 H         1 UNK         0.0812 
    124 H124       31.7852   -1.0148   -9.4191 H         1 UNK         0.0812 
    125 H125       33.4159    2.2774   -9.6786 H         1 UNK         0.3205 
    126 H126       32.5115    3.9510   -7.5958 H         1 UNK         0.0754 
    127 H127       34.9494    4.4181   -7.2701 H         1 UNK         0.0769 
    128 H128       34.5188    4.4380   -8.9709 H         1 UNK         0.0769 
    129 H129       35.3604    3.0451   -8.2882 H         1 UNK         0.0769 
    130 H130       33.5697    0.6225   -7.4304 H         1 UNK         0.2981 
    131 H131       34.0359    0.5990   -4.5686 H         1 UNK         0.0541 
    132 H132       31.0490    0.6686   -6.3338 H         1 UNK         0.3459 
    133 H133       30.1043   -0.0192   -5.0342 H         1 UNK         0.3459 
    134 H134       34.3264   -1.8472   -4.8589 H         1 UNK         0.0612 
    135 H135       35.3646   -0.9019   -5.8745 H         1 UNK         0.0612 
    136 H136       34.6988   -3.9739   -6.0950 H         1 UNK         0.0624 
    137 H137       33.8674   -4.4229   -7.5595 H         1 UNK         0.0624 
@<TRIPOS>BOND
     1    1    2 1    
     2    1   72 1    
     3    1   73 1    
     4    1   74 1    
     5    2    3 2    
     6    2    4 am   BACKBONE|DICT|INTERRES
     7    4    5 1    
     8    4   75 1    
     9    5    6 1    
    10    5   35 1    
    11    5   76 1    
    12    6    7 1    
    13    6   77 1    
    14    6   78 1    
    15    7    8 1    
    16    8    9 1    
    17    8   79 1    
    18    8   80 1    
    19    9   10 ar   
    20    9   14 ar   
    21   10   11 ar   
    22   10   81 1    
    23   11   12 ar   
    24   11   71 1    
    25   12   13 ar   
    26   12   82 1    
    27   13   14 ar   
    28   13   15 1    
    29   14   83 1    
    30   15   16 1    
    31   15   84 1    
    32   15   85 1    
    33   16   17 1    
    34   17   18 1    
    35   17   86 1    
    36   17   87 1    
    37   18   19 1    
    38   18   37 1    
    39   18   88 1    
    40   19   20 am   BACKBONE|DICT|INTERRES
    41   19   89 1    
    42   20   21 2    
    43   20   22 1    
    44   22   23 1    
    45   22   24 1    
    46   22   90 1    
    47   23   91 1    
    48   23   92 1    
    49   23   93 1    
    50   24   25 am   BACKBONE|DICT|INTERRES
    51   24   94 1    
    52   25   26 2    
    53   25   27 1    
    54   27   28 1    
    55   27   29 1    
    56   27   95 1    
    57   28   96 1    
    58   28   97 1    
    59   28   98 1    
    60   29   30 am   BACKBONE|DICT|INTERRES
    61   29   99 1    
    62   30   31 2    
    63   30   32 1    
    64   32   33 1    
    65   32   34 1    
    66   32  100 1    
    67   33  101 1    
    68   33  102 1    
    69   33  103 1    
    70   34   35 am   BACKBONE|DICT|INTERRES
    71   34  104 1    
    72   35   36 2    
    73   37   38 2    
    74   37   39 am   BACKBONE|DICT|INTERRES
    75   39   40 1    
    76   39  105 1    
    77   40   41 1    
    78   40   42 1    
    79   40  106 1    
    80   41  107 1    
    81   41  108 1    
    82   41  109 1    
    83   42   43 2    
    84   42   44 am   BACKBONE|DICT|INTERRES
    85   44   45 1    
    86   44  110 1    
    87   45   46 1    
    88   45   47 1    
    89   45  111 1    
    90   46  112 1    
    91   46  113 1    
    92   46  114 1    
    93   47   48 2    
    94   47   49 am   BACKBONE|DICT|INTERRES
    95   49   50 1    
    96   49  115 1    
    97   50   51 1    
    98   50   52 1    
    99   50  116 1    
   100   51  117 1    
   101   51  118 1    
   102   51  119 1    
   103   52   53 2    
   104   52   54 am   BACKBONE|DICT|INTERRES
   105   54   55 1    
   106   54  120 1    
   107   55   56 1    
   108   55   57 1    
   109   55  121 1    
   110   56  122 1    
   111   56  123 1    
   112   56  124 1    
   113   57   58 2    
   114   57   59 am   BACKBONE|DICT|INTERRES
   115   59   60 1    
   116   59  125 1    
   117   60   61 1    
   118   60   62 1    
   119   60  126 1    
   120   61  127 1    
   121   61  128 1    
   122   61  129 1    
   123   62   63 2    
   124   62   64 am   BACKBONE|DICT|INTERRES
   125   64   65 1    
   126   64  130 1    
   127   65   66 1    
   128   65   69 1    
   129   65  131 1    
   130   66   67 am   BACKBONE|DICT|INTERRES
   131   66   68 2    
   132   67  132 1    
   133   67  133 1    
   134   69   70 1    
   135   69  134 1    
   136   69  135 1    
   137   70   71 1    
   138   71  136 1    
   139   71  137 1    
@<TRIPOS>SUBSTRUCTURE
     1 UNK         1 GROUP             0       ****    0 ROOT    
