@<TRIPOS>MOLECULE
3R137
137   139    1
SMALL
USER_CHARGES


@<TRIPOS>ATOM
      1 CA         28.9413   -6.9713   -5.0532 C.3       0 UNK        -0.2020 
      2 C          28.7885   -6.3883   -3.6561 C.2       0 UNK         0.4855 
      3 O          28.8372   -7.1279   -2.6732 O.2       0 UNK        -0.5197 
      4 N          28.6028   -5.0692   -3.5616 N.am      1 UNK        -0.4892 
      5 CA         28.4112   -4.3221   -2.3221 C.3       1 UNK         0.0835 
      6 C6         29.7704   -3.9686   -1.6654 C.3       12 UNK        -0.0855 
      7 S7         29.6176   -3.3136    0.0356 S.3       12 UNK        -0.2931 
      8 C8         31.2829   -2.6141    0.3366 C.3       12 UNK         0.0378 
      9 C9         31.6949   -1.6395   -0.7580 C.ar      12 UNK        -0.0802 
     10 C10        32.7649   -1.9380   -1.6062 C.ar      12 UNK        -0.0944 
     11 C11        33.0344   -1.1341   -2.7196 C.ar      12 UNK        -0.0787 
     12 C12        32.2398   -0.0085   -2.9632 C.ar      12 UNK        -0.0862 
     13 C13        31.1837    0.3126   -2.1058 C.ar      12 UNK        -0.0733 
     14 C14        30.9388   -0.4888   -0.9868 C.ar      12 UNK        -0.0832 
     15 C15        30.2335    1.4529   -2.4392 C.3       12 UNK         0.0240 
     16 S16        28.5791    0.7631   -2.7246 S.3       12 UNK        -0.2522 
     17 C17        27.6429    2.1199   -3.4939 C.3       12 UNK        -0.0967 
     18 CA         27.5303    2.0023   -5.0402 C.3       5 UNK         0.0660 
     19 N          27.4710    0.6195   -5.5283 N.am      5 UNK        -0.4015 
     20 C          27.5219    0.2468   -6.8143 C.2       4 UNK         0.4946 
     21 O          27.6102    1.0335   -7.7548 O.2       4 UNK        -0.5353 
     22 CA         27.3978   -1.2545   -7.1026 C.3       4 UNK         0.0277 
     23 CB         28.7559   -1.9552   -6.9383 C.3       4 UNK        -0.1981 
     24 N          26.3930   -1.8794   -6.2402 N.am      4 UNK        -0.4209 
     25 C          25.0712   -1.7006   -6.3912 C.2       3 UNK         0.4942 
     26 O          24.5722   -1.0523   -7.3110 O.2       3 UNK        -0.5208 
     27 CA         24.1442   -2.3172   -5.3278 C.3       3 UNK         0.0250 
     28 CB         23.7338   -3.7412   -5.7350 C.3       3 UNK        -0.1990 
     29 N          24.7233   -2.3450   -3.9824 N.am      3 UNK        -0.4232 
     30 C          25.0880   -1.2627   -3.2807 C.2       2 UNK         0.4993 
     31 O          24.9403   -0.1064   -3.6809 O.2       2 UNK        -0.5286 
     32 CA         25.7641   -1.5122   -1.9190 C.3       2 UNK         0.0209 
     33 CB         24.7035   -1.5719   -0.8081 C.3       2 UNK        -0.1931 
     34 N          26.6243   -2.7051   -1.8295 N.am      2 UNK        -0.4546 
     35 C          27.5799   -3.0810   -2.6945 C.2       1 UNK         0.5154 
     36 O          27.7990   -2.5180   -3.7715 O.2       1 UNK        -0.5181 
     37 C          26.3281    2.8164   -5.5528 C.2       5 UNK         0.5014 
     38 O          26.5111    3.9287   -6.0476 O.2       5 UNK        -0.5248 
     39 N          25.1289    2.2187   -5.4689 N.am      6 UNK        -0.4434 
     40 CA         23.8727    2.7630   -5.9923 C.3       6 UNK         0.0363 
     41 CB         22.7125    1.8466   -5.5728 C.3       6 UNK        -0.1936 
     42 C          23.8777    2.9606   -7.5198 C.2       6 UNK         0.5081 
     43 O          23.2796    3.9200   -8.0067 O.2       6 UNK        -0.5248 
     44 N          24.5684    2.0703   -8.2443 N.am      7 UNK        -0.4718 
     45 CA         24.7796    2.1520   -9.6924 C.3       7 UNK         0.0273 
     46 CB         25.0484    0.7360  -10.2306 C.3       7 UNK        -0.1935 
     47 C          25.9239    3.1049  -10.0938 C.2       7 UNK         0.5018 
     48 O          26.0909    3.3540  -11.2886 O.2       7 UNK        -0.5186 
     49 N          26.6963    3.5961   -9.1112 N.am      8 UNK        -0.4240 
     50 CA         27.9262    4.3874   -9.2431 C.3       8 UNK         0.0235 
     51 CB         27.6308    5.7779   -9.8451 C.3       8 UNK        -0.2000 
     52 C          29.0444    3.6252   -9.9848 C.2       8 UNK         0.4941 
     53 O          29.7679    4.2171  -10.7890 O.2       8 UNK        -0.5273 
     54 N          29.1569    2.3227   -9.7026 N.am      9 UNK        -0.4262 
     55 CA         30.1274    1.3965  -10.2782 C.3       9 UNK         0.0264 
     56 CB         29.3519    0.2070  -10.8727 C.3       9 UNK        -0.1955 
     57 C          31.0995    0.9079   -9.1941 C.2       9 UNK         0.5031 
     58 O          30.8417    1.0768   -7.9993 O.2       9 UNK        -0.5390 
     59 N          32.1956    0.2768   -9.6322 N.am      10 UNK        -0.4204 
     60 CA         33.1225   -0.4479   -8.7615 C.3       10 UNK         0.0237 
     61 CB         34.4437   -0.6877   -9.5102 C.3       10 UNK        -0.1985 
     62 C          32.5034   -1.7830   -8.3159 C.2       10 UNK         0.4970 
     63 O          31.8042   -2.4227   -9.1061 O.2       10 UNK        -0.4914 
     64 N          32.7802   -2.1797   -7.0701 N.am      11 UNK        -0.4285 
     65 CA         32.3291   -3.4485   -6.4845 C.3       11 UNK         0.1007 
     66 C          33.0275   -4.6988   -7.0940 C.2       11 UNK         0.5703 
     67 N          32.4240   -5.8720   -6.9555 N.am      11 UNK        -0.7361 
     68 O          34.1129   -4.6234   -7.6684 O.2       11 UNK        -0.4986 
     69 C69        32.3979   -3.4090   -4.9353 C.3       12 UNK        -0.0947 
     70 S70        34.0869   -3.2408   -4.2487 S.3       12 UNK        -0.2240 
     71 C71        34.1483   -1.5012   -3.6939 C.3       12 UNK         0.0194 
     72 H72        29.8979   -7.4854   -5.1424 H         1 UNK         0.0906 
     73 H73        28.1485   -7.6938   -5.2455 H         1 UNK         0.0906 
     74 H74        28.8929   -6.2030   -5.8247 H         1 UNK         0.0906 
     75 H75        28.5314   -4.4898   -4.3892 H         1 UNK         0.3140 
     76 H76        27.8272   -4.9365   -1.6329 H         1 UNK         0.1085 
     77 H77        30.3079   -3.2626   -2.3002 H         1 UNK         0.0836 
     78 H78        30.4006   -4.8577   -1.6107 H         1 UNK         0.0836 
     79 H79        32.0001   -3.4324    0.4183 H         1 UNK         0.0731 
     80 H80        31.2878   -2.1005    1.2990 H         1 UNK         0.0731 
     81 H81        33.3523   -2.8301   -1.4370 H         1 UNK         0.1312 
     82 H82        32.4193    0.5976   -3.8408 H         1 UNK         0.1406 
     83 H83        30.0951   -0.2695   -0.3460 H         1 UNK         0.1631 
     84 H84        30.5624    1.9917   -3.3293 H         1 UNK         0.0717 
     85 H85        30.2023    2.1699   -1.6178 H         1 UNK         0.0717 
     86 H86        26.6560    2.1015   -3.0260 H         1 UNK         0.0934 
     87 H87        28.0849    3.0784   -3.2157 H         1 UNK         0.0934 
     88 H88        28.4327    2.4400   -5.4729 H         1 UNK         0.0739 
     89 H89        27.4061   -0.0945   -4.8151 H         1 UNK         0.3093 
     90 H90        27.0815   -1.3719   -8.1414 H         1 UNK         0.0818 
     91 H91        28.6836   -3.0209   -7.1541 H         1 UNK         0.0819 
     92 H92        29.4884   -1.5338   -7.6278 H         1 UNK         0.0819 
     93 H93        29.1595   -1.8389   -5.9319 H         1 UNK         0.0819 
     94 H94        26.7373   -2.3533   -5.4103 H         1 UNK         0.3041 
     95 H95        23.2441   -1.7003   -5.2845 H         1 UNK         0.0784 
     96 H96        23.2777   -3.7467   -6.7261 H         1 UNK         0.0793 
     97 H97        24.5904   -4.4159   -5.7666 H         1 UNK         0.0793 
     98 H98        23.0022   -4.1576   -5.0422 H         1 UNK         0.0793 
     99 H99        24.8867   -3.2531   -3.5729 H         1 UNK         0.3024 
    100 H100       26.3966   -0.6484   -1.7189 H         1 UNK         0.1171 
    101 H101       25.1637   -1.6038    0.1798 H         1 UNK         0.0786 
    102 H102       24.0606   -0.6905   -0.8332 H         1 UNK         0.0786 
    103 H103       24.0609   -2.4473   -0.9091 H         1 UNK         0.0786 
    104 H104       26.5324   -3.2401   -0.9776 H         1 UNK         0.2977 
    105 H105       25.0729    1.3200   -4.9935 H         1 UNK         0.3127 
    106 H106       23.7215    3.7423   -5.5337 H         1 UNK         0.0770 
    107 H107       22.8208    0.8446   -5.9899 H         1 UNK         0.0814 
    108 H108       21.7567    2.2433   -5.9176 H         1 UNK         0.0814 
    109 H109       22.6530    1.7520   -4.4883 H         1 UNK         0.0814 
    110 H110       25.0103    1.2934   -7.7685 H         1 UNK         0.2983 
    111 H111       23.8672    2.5270  -10.1613 H         1 UNK         0.0947 
    112 H112       25.9654    0.3152   -9.8169 H         1 UNK         0.0806 
    113 H113       25.1542    0.7419  -11.3162 H         1 UNK         0.0806 
    114 H114       24.2306    0.0571   -9.9884 H         1 UNK         0.0806 
    115 H115       26.4715    3.3155   -8.1639 H         1 UNK         0.3000 
    116 H116       28.2928    4.5413   -8.2270 H         1 UNK         0.0850 
    117 H117       28.5177    6.4119   -9.8156 H         1 UNK         0.0810 
    118 H118       26.8473    6.2918   -9.2883 H         1 UNK         0.0810 
    119 H119       27.3149    5.7111  -10.8865 H         1 UNK         0.0810 
    120 H120       28.5684    1.9244   -8.9688 H         1 UNK         0.3040 
    121 H121       30.7033    1.8820  -11.0687 H         1 UNK         0.0766 
    122 H122       28.6435    0.5380  -11.6326 H         1 UNK         0.0812 
    123 H123       28.7902   -0.3289  -10.1059 H         1 UNK         0.0812 
    124 H124       30.0230   -0.5106  -11.3462 H         1 UNK         0.0812 
    125 H125       32.3152    0.1435  -10.6260 H         1 UNK         0.3205 
    126 H126       33.3274    0.1645   -7.8802 H         1 UNK         0.0754 
    127 H127       35.1626   -1.2083   -8.8759 H         1 UNK         0.0769 
    128 H128       34.9035    0.2525   -9.8158 H         1 UNK         0.0769 
    129 H129       34.2979   -1.2971  -10.4033 H         1 UNK         0.0769 
    130 H130       33.4032   -1.6298   -6.4998 H         1 UNK         0.2981 
    131 H131       31.2730   -3.5436   -6.7438 H         1 UNK         0.0541 
    132 H132       32.8659   -6.6943   -7.3359 H         1 UNK         0.3459 
    133 H133       31.5389   -5.9525   -6.4835 H         1 UNK         0.3459 
    134 H134       31.9608   -4.3174   -4.5175 H         1 UNK         0.0612 
    135 H135       31.7660   -2.5993   -4.5691 H         1 UNK         0.0612 
    136 H136       35.1091   -1.3237   -3.2094 H         1 UNK         0.0624 
    137 H137       34.1231   -0.8553   -4.5724 H         1 UNK         0.0624 
@<TRIPOS>BOND
     1    1    2 1    
     2    1   72 1    
     3    1   73 1    
     4    1   74 1    
     5    2    3 2    
     6    2    4 am   BACKBONE|DICT|INTERRES
     7    4    5 1    
     8    4   75 1    
     9    5    6 1    
    10    5   35 1    
    11    5   76 1    
    12    6    7 1    
    13    6   77 1    
    14    6   78 1    
    15    7    8 1    
    16    8    9 1    
    17    8   79 1    
    18    8   80 1    
    19    9   10 ar   
    20    9   14 ar   
    21   10   11 ar   
    22   10   81 1    
    23   11   12 ar   
    24   11   71 1    
    25   12   13 ar   
    26   12   82 1    
    27   13   14 ar   
    28   13   15 1    
    29   14   83 1    
    30   15   16 1    
    31   15   84 1    
    32   15   85 1    
    33   16   17 1    
    34   17   18 1    
    35   17   86 1    
    36   17   87 1    
    37   18   19 1    
    38   18   37 1    
    39   18   88 1    
    40   19   20 am   BACKBONE|DICT|INTERRES
    41   19   89 1    
    42   20   21 2    
    43   20   22 1    
    44   22   23 1    
    45   22   24 1    
    46   22   90 1    
    47   23   91 1    
    48   23   92 1    
    49   23   93 1    
    50   24   25 am   BACKBONE|DICT|INTERRES
    51   24   94 1    
    52   25   26 2    
    53   25   27 1    
    54   27   28 1    
    55   27   29 1    
    56   27   95 1    
    57   28   96 1    
    58   28   97 1    
    59   28   98 1    
    60   29   30 am   BACKBONE|DICT|INTERRES
    61   29   99 1    
    62   30   31 2    
    63   30   32 1    
    64   32   33 1    
    65   32   34 1    
    66   32  100 1    
    67   33  101 1    
    68   33  102 1    
    69   33  103 1    
    70   34   35 am   BACKBONE|DICT|INTERRES
    71   34  104 1    
    72   35   36 2    
    73   37   38 2    
    74   37   39 am   BACKBONE|DICT|INTERRES
    75   39   40 1    
    76   39  105 1    
    77   40   41 1    
    78   40   42 1    
    79   40  106 1    
    80   41  107 1    
    81   41  108 1    
    82   41  109 1    
    83   42   43 2    
    84   42   44 am   BACKBONE|DICT|INTERRES
    85   44   45 1    
    86   44  110 1    
    87   45   46 1    
    88   45   47 1    
    89   45  111 1    
    90   46  112 1    
    91   46  113 1    
    92   46  114 1    
    93   47   48 2    
    94   47   49 am   BACKBONE|DICT|INTERRES
    95   49   50 1    
    96   49  115 1    
    97   50   51 1    
    98   50   52 1    
    99   50  116 1    
   100   51  117 1    
   101   51  118 1    
   102   51  119 1    
   103   52   53 2    
   104   52   54 am   BACKBONE|DICT|INTERRES
   105   54   55 1    
   106   54  120 1    
   107   55   56 1    
   108   55   57 1    
   109   55  121 1    
   110   56  122 1    
   111   56  123 1    
   112   56  124 1    
   113   57   58 2    
   114   57   59 am   BACKBONE|DICT|INTERRES
   115   59   60 1    
   116   59  125 1    
   117   60   61 1    
   118   60   62 1    
   119   60  126 1    
   120   61  127 1    
   121   61  128 1    
   122   61  129 1    
   123   62   63 2    
   124   62   64 am   BACKBONE|DICT|INTERRES
   125   64   65 1    
   126   64  130 1    
   127   65   66 1    
   128   65   69 1    
   129   65  131 1    
   130   66   67 am   BACKBONE|DICT|INTERRES
   131   66   68 2    
   132   67  132 1    
   133   67  133 1    
   134   69   70 1    
   135   69  134 1    
   136   69  135 1    
   137   70   71 1    
   138   71  136 1    
   139   71  137 1    
@<TRIPOS>SUBSTRUCTURE
     1 UNK         1 GROUP             0       ****    0 ROOT    
