@<TRIPOS>MOLECULE
3R137
137   139    1
SMALL
USER_CHARGES


@<TRIPOS>ATOM
      1 CA         26.3866   -0.0258   -0.2031 C.3       0 UNK        -0.2020 
      2 C          26.5337   -0.8320    1.0830 C.2       0 UNK         0.4855 
      3 O          25.9481   -0.4604    2.0984 O.2       0 UNK        -0.5197 
      4 N          27.3118   -1.9219    1.1043 N.am      1 UNK        -0.4892 
      5 CA         28.0064   -2.5438   -0.0318 C.3       1 UNK         0.0835 
      6 C6         29.1394   -3.4807    0.4558 C.3       12 UNK        -0.0855 
      7 S7         30.4742   -2.5357    1.2667 S.3       12 UNK        -0.2931 
      8 C8         31.8424   -2.6939    0.0719 C.3       12 UNK         0.0378 
      9 C9         31.4918   -2.1430   -1.3050 C.ar      12 UNK        -0.0802 
     10 C10        31.3769   -3.0088   -2.3985 C.ar      12 UNK        -0.0944 
     11 C11        31.0800   -2.5088   -3.6690 C.ar      12 UNK        -0.0787 
     12 C12        30.8971   -1.1357   -3.8439 C.ar      12 UNK        -0.0862 
     13 C13        31.0011   -0.2611   -2.7591 C.ar      12 UNK        -0.0733 
     14 C14        31.3040   -0.7686   -1.4916 C.ar      12 UNK        -0.0832 
     15 C15        30.7915    1.2317   -2.9697 C.3       12 UNK         0.0240 
     16 S16        29.1313    1.7933   -2.4643 S.3       12 UNK        -0.2522 
     17 C17        28.0168    0.6977   -3.4070 C.3       12 UNK        -0.0967 
     18 CA         27.8919    1.0649   -4.9071 C.3       5 UNK         0.0660 
     19 N          27.5397   -0.1070   -5.7135 N.am      5 UNK        -0.4015 
     20 C          27.5723   -0.1493   -7.0546 C.2       4 UNK         0.4946 
     21 O          27.9519    0.7881   -7.7523 O.2       4 UNK        -0.5353 
     22 CA         27.0521   -1.4217   -7.7510 C.3       4 UNK         0.0277 
     23 CB         28.2106   -2.3861   -8.0498 C.3       4 UNK        -0.1981 
     24 N          26.0138   -2.1280   -6.9981 N.am      4 UNK        -0.4209 
     25 C          24.8436   -1.6021   -6.6064 C.2       3 UNK         0.4942 
     26 O          24.4558   -0.4805   -6.9348 O.2       3 UNK        -0.5208 
     27 CA         24.0047   -2.4360   -5.6176 C.3       3 UNK         0.0250 
     28 CB         22.9296   -3.2356   -6.3698 C.3       3 UNK        -0.1990 
     29 N          24.7953   -3.3477   -4.7736 N.am      3 UNK        -0.4232 
     30 C          25.7912   -2.9707   -3.9575 C.2       2 UNK         0.4993 
     31 O          26.1563   -1.7992   -3.8286 O.2       2 UNK        -0.5286 
     32 CA         26.5609   -4.0914   -3.2404 C.3       2 UNK         0.0209 
     33 CB         27.4487   -4.8521   -4.2403 C.3       2 UNK        -0.1931 
     34 N          27.4157   -3.5289   -2.1922 N.am      2 UNK        -0.4546 
     35 C          27.0158   -3.3079   -0.9350 C.2       1 UNK         0.5154 
     36 O          25.9285   -3.6844   -0.4881 O.2       1 UNK        -0.5181 
     37 C          26.8934    2.2196   -5.1255 C.2       5 UNK         0.5014 
     38 O          27.3141    3.3630   -5.3043 O.2       5 UNK        -0.5248 
     39 N          25.5920    1.8919   -5.1480 N.am      6 UNK        -0.4434 
     40 CA         24.5033    2.8354   -5.4152 C.3       6 UNK         0.0363 
     41 CB         23.1605    2.2020   -5.0169 C.3       6 UNK        -0.1936 
     42 C          24.4774    3.2996   -6.8810 C.2       6 UNK         0.5081 
     43 O          24.1841    4.4664   -7.1415 O.2       6 UNK        -0.5248 
     44 N          24.8132    2.3909   -7.8075 N.am      7 UNK        -0.4718 
     45 CA         24.9638    2.6764   -9.2384 C.3       7 UNK         0.0273 
     46 CB         24.9425    1.3501  -10.0151 C.3       7 UNK        -0.1935 
     47 C          26.2402    3.4713   -9.5826 C.2       7 UNK         0.5018 
     48 O          26.3267    4.0000  -10.6916 O.2       7 UNK        -0.5186 
     49 N          27.2011    3.5213   -8.6469 N.am      8 UNK        -0.4240 
     50 CA         28.5483    4.0917   -8.7632 C.3       8 UNK         0.0235 
     51 CB         28.4915    5.6222   -8.9570 C.3       8 UNK        -0.2000 
     52 C          29.4005    3.3698   -9.8268 C.2       8 UNK         0.4941 
     53 O          30.1013    4.0198  -10.6058 O.2       8 UNK        -0.5273 
     54 N          29.3173    2.0346   -9.8379 N.am      9 UNK        -0.4262 
     55 CA         30.0600    1.1409  -10.7216 C.3       9 UNK         0.0264 
     56 CB         29.0895    0.0867  -11.2797 C.3       9 UNK        -0.1955 
     57 C          31.1941    0.4649   -9.9390 C.2       9 UNK         0.5031 
     58 O          31.0549    0.2156   -8.7389 O.2       9 UNK        -0.5390 
     59 N          32.2920    0.1550  -10.6375 N.am      10 UNK        -0.4204 
     60 CA         33.4437   -0.5543  -10.0839 C.3       10 UNK         0.0237 
     61 CB         34.6949   -0.2234  -10.9172 C.3       10 UNK        -0.1985 
     62 C          33.1683   -2.0653  -10.0583 C.2       10 UNK         0.4970 
     63 O          33.1866   -2.7013  -11.1140 O.2       10 UNK        -0.4914 
     64 N          32.9148   -2.6057   -8.8619 N.am      11 UNK        -0.4285 
     65 CA         32.7287   -4.0449   -8.6128 C.3       11 UNK         0.1007 
     66 C          34.0410   -4.8845   -8.6006 C.2       11 UNK         0.5703 
     67 N          35.2228   -4.2784   -8.6202 N.am      11 UNK        -0.7361 
     68 O          33.9840   -6.1120   -8.5914 O.2       11 UNK        -0.4986 
     69 C69        31.8537   -4.3021   -7.3569 C.3       12 UNK        -0.0947 
     70 S70        32.4720   -3.4906   -5.8422 S.3       12 UNK        -0.2240 
     71 C71        30.9453   -3.4416   -4.8592 C.3       12 UNK         0.0194 
     72 H72        25.9690   -0.6293   -1.0083 H         1 UNK         0.0906 
     73 H73        25.7216    0.8239   -0.0490 H         1 UNK         0.0906 
     74 H74        27.3540    0.3656   -0.5129 H         1 UNK         0.0906 
     75 H75        27.3876   -2.4322    1.9722 H         1 UNK         0.3140 
     76 H76        28.4579   -1.7548   -0.6374 H         1 UNK         0.1085 
     77 H77        29.5616   -4.0579   -0.3686 H         1 UNK         0.0836 
     78 H78        28.7536   -4.2168    1.1638 H         1 UNK         0.0836 
     79 H79        32.1367   -3.7428    0.0077 H         1 UNK         0.0731 
     80 H80        32.7109   -2.1591    0.4589 H         1 UNK         0.0731 
     81 H81        31.5258   -4.0716   -2.2641 H         1 UNK         0.1312 
     82 H82        30.6680   -0.7488   -4.8281 H         1 UNK         0.1406 
     83 H83        31.3883   -0.0957   -0.6486 H         1 UNK         0.1631 
     84 H84        30.9565    1.4971   -4.0150 H         1 UNK         0.0717 
     85 H85        31.5372    1.7870   -2.3991 H         1 UNK         0.0717 
     86 H86        28.3659   -0.3271   -3.2869 H         1 UNK         0.0934 
     87 H87        27.0373    0.7060   -2.9261 H         1 UNK         0.0934 
     88 H88        28.8659    1.4031   -5.2665 H         1 UNK         0.0739 
     89 H89        27.1490   -0.8916   -5.1992 H         1 UNK         0.3093 
     90 H90        26.6150   -1.1147   -8.7018 H         1 UNK         0.0818 
     91 H91        27.8983   -3.1823   -8.7256 H         1 UNK         0.0819 
     92 H92        29.0470   -1.8696   -8.5234 H         1 UNK         0.0819 
     93 H93        28.5895   -2.8497   -7.1409 H         1 UNK         0.0819 
     94 H94        26.2334   -3.0642   -6.6927 H         1 UNK         0.3041 
     95 H95        23.5031   -1.7303   -4.9521 H         1 UNK         0.0784 
     96 H96        23.3694   -3.9838   -7.0305 H         1 UNK         0.0793 
     97 H97        22.3144   -2.5779   -6.9861 H         1 UNK         0.0793 
     98 H98        22.2591   -3.7478   -5.6794 H         1 UNK         0.0793 
     99 H99        24.5620   -4.3289   -4.8345 H         1 UNK         0.3024 
    100 H100       25.8413   -4.7863   -2.8005 H         1 UNK         0.1171 
    101 H101       28.0670   -5.5959   -3.7370 H         1 UNK         0.0786 
    102 H102       26.8473   -5.3843   -4.9783 H         1 UNK         0.0786 
    103 H103       28.1104   -4.1797   -4.7852 H         1 UNK         0.0786 
    104 H104       28.3049   -3.1588   -2.4954 H         1 UNK         0.2977 
    105 H105       25.3335    0.9205   -5.0439 H         1 UNK         0.3127 
    106 H106       24.6604    3.7180   -4.7912 H         1 UNK         0.0770 
    107 H107       22.9402    1.3106   -5.6052 H         1 UNK         0.0814 
    108 H108       22.3398    2.9036   -5.1721 H         1 UNK         0.0814 
    109 H109       23.1504    1.9208   -3.9637 H         1 UNK         0.0814 
    110 H110       24.9620    1.4314   -7.5103 H         1 UNK         0.2983 
    111 H111       24.1087    3.2758   -9.5585 H         1 UNK         0.0947 
    112 H112       24.9282    1.5298  -11.0909 H         1 UNK         0.0806 
    113 H113       24.0610    0.7563   -9.7723 H         1 UNK         0.0806 
    114 H114       25.8254    0.7489   -9.8010 H         1 UNK         0.0806 
    115 H115       27.0293    3.0070   -7.7926 H         1 UNK         0.3000 
    116 H116       29.0366    3.9002   -7.8062 H         1 UNK         0.0850 
    117 H117       29.4901    6.0580   -8.9097 H         1 UNK         0.0810 
    118 H118       27.8938    6.0974   -8.1791 H         1 UNK         0.0810 
    119 H119       28.0648    5.8946   -9.9227 H         1 UNK         0.0810 
    120 H120       28.7922    1.5763   -9.0908 H         1 UNK         0.3040 
    121 H121       30.4870    1.7007  -11.5564 H         1 UNK         0.0766 
    122 H122       28.6220   -0.4929  -10.4834 H         1 UNK         0.0812 
    123 H123       29.6042   -0.6148  -11.9376 H         1 UNK         0.0812 
    124 H124       28.2937    0.5531  -11.8607 H         1 UNK         0.0812 
    125 H125       32.3143    0.3475  -11.6290 H         1 UNK         0.3205 
    126 H126       33.6245   -0.2066   -9.0640 H         1 UNK         0.0754 
    127 H127       34.9178    0.8434  -10.8891 H         1 UNK         0.0769 
    128 H128       34.5788   -0.5131  -11.9625 H         1 UNK         0.0769 
    129 H129       35.5704   -0.7465  -10.5299 H         1 UNK         0.0769 
    130 H130       32.8870   -2.0136   -8.0440 H         1 UNK         0.2981 
    131 H131       32.1613   -4.4394   -9.4581 H         1 UNK         0.0541 
    132 H132       35.2832   -3.2736   -8.6205 H         1 UNK         0.3459 
    133 H133       36.0625   -4.8356   -8.6189 H         1 UNK         0.3459 
    134 H134       31.7433   -5.3709   -7.1643 H         1 UNK         0.0612 
    135 H135       30.8466   -3.9355   -7.5581 H         1 UNK         0.0612 
    136 H136       30.1236   -3.0952   -5.4839 H         1 UNK         0.0624 
    137 H137       30.6905   -4.4520   -4.5354 H         1 UNK         0.0624 
@<TRIPOS>BOND
     1    1    2 1    
     2    1   72 1    
     3    1   73 1    
     4    1   74 1    
     5    2    3 2    
     6    2    4 am   BACKBONE|DICT|INTERRES
     7    4    5 1    
     8    4   75 1    
     9    5    6 1    
    10    5   35 1    
    11    5   76 1    
    12    6    7 1    
    13    6   77 1    
    14    6   78 1    
    15    7    8 1    
    16    8    9 1    
    17    8   79 1    
    18    8   80 1    
    19    9   10 ar   
    20    9   14 ar   
    21   10   11 ar   
    22   10   81 1    
    23   11   12 ar   
    24   11   71 1    
    25   12   13 ar   
    26   12   82 1    
    27   13   14 ar   
    28   13   15 1    
    29   14   83 1    
    30   15   16 1    
    31   15   84 1    
    32   15   85 1    
    33   16   17 1    
    34   17   18 1    
    35   17   86 1    
    36   17   87 1    
    37   18   19 1    
    38   18   37 1    
    39   18   88 1    
    40   19   20 am   BACKBONE|DICT|INTERRES
    41   19   89 1    
    42   20   21 2    
    43   20   22 1    
    44   22   23 1    
    45   22   24 1    
    46   22   90 1    
    47   23   91 1    
    48   23   92 1    
    49   23   93 1    
    50   24   25 am   BACKBONE|DICT|INTERRES
    51   24   94 1    
    52   25   26 2    
    53   25   27 1    
    54   27   28 1    
    55   27   29 1    
    56   27   95 1    
    57   28   96 1    
    58   28   97 1    
    59   28   98 1    
    60   29   30 am   BACKBONE|DICT|INTERRES
    61   29   99 1    
    62   30   31 2    
    63   30   32 1    
    64   32   33 1    
    65   32   34 1    
    66   32  100 1    
    67   33  101 1    
    68   33  102 1    
    69   33  103 1    
    70   34   35 am   BACKBONE|DICT|INTERRES
    71   34  104 1    
    72   35   36 2    
    73   37   38 2    
    74   37   39 am   BACKBONE|DICT|INTERRES
    75   39   40 1    
    76   39  105 1    
    77   40   41 1    
    78   40   42 1    
    79   40  106 1    
    80   41  107 1    
    81   41  108 1    
    82   41  109 1    
    83   42   43 2    
    84   42   44 am   BACKBONE|DICT|INTERRES
    85   44   45 1    
    86   44  110 1    
    87   45   46 1    
    88   45   47 1    
    89   45  111 1    
    90   46  112 1    
    91   46  113 1    
    92   46  114 1    
    93   47   48 2    
    94   47   49 am   BACKBONE|DICT|INTERRES
    95   49   50 1    
    96   49  115 1    
    97   50   51 1    
    98   50   52 1    
    99   50  116 1    
   100   51  117 1    
   101   51  118 1    
   102   51  119 1    
   103   52   53 2    
   104   52   54 am   BACKBONE|DICT|INTERRES
   105   54   55 1    
   106   54  120 1    
   107   55   56 1    
   108   55   57 1    
   109   55  121 1    
   110   56  122 1    
   111   56  123 1    
   112   56  124 1    
   113   57   58 2    
   114   57   59 am   BACKBONE|DICT|INTERRES
   115   59   60 1    
   116   59  125 1    
   117   60   61 1    
   118   60   62 1    
   119   60  126 1    
   120   61  127 1    
   121   61  128 1    
   122   61  129 1    
   123   62   63 2    
   124   62   64 am   BACKBONE|DICT|INTERRES
   125   64   65 1    
   126   64  130 1    
   127   65   66 1    
   128   65   69 1    
   129   65  131 1    
   130   66   67 am   BACKBONE|DICT|INTERRES
   131   66   68 2    
   132   67  132 1    
   133   67  133 1    
   134   69   70 1    
   135   69  134 1    
   136   69  135 1    
   137   70   71 1    
   138   71  136 1    
   139   71  137 1    
@<TRIPOS>SUBSTRUCTURE
     1 UNK         1 GROUP             0       ****    0 ROOT    
