@<TRIPOS>MOLECULE
3R137
137   139    1
SMALL
USER_CHARGES


@<TRIPOS>ATOM
      1 CA         29.6299    1.6344    0.1317 C.3       0 UNK        -0.2020 
      2 C          29.1853    0.1794    0.1700 C.2       0 UNK         0.4855 
      3 O          28.9610   -0.3586    1.2547 O.2       0 UNK        -0.5197 
      4 N          29.0742   -0.4497   -1.0082 N.am      1 UNK        -0.4892 
      5 CA         28.6073   -1.8225   -1.2513 C.3       1 UNK         0.0835 
      6 C6         29.3555   -2.8917   -0.4042 C.3       12 UNK        -0.0855 
      7 S7         29.6169   -4.4614   -1.2985 S.3       12 UNK        -0.2931 
      8 C8         31.2686   -4.2005   -2.0302 C.3       12 UNK         0.0378 
      9 C9         31.1975   -3.2350   -3.2032 C.ar      12 UNK        -0.0802 
     10 C10        31.5066   -1.8816   -3.0330 C.ar      12 UNK        -0.0944 
     11 C11        31.3492   -0.9783   -4.0888 C.ar      12 UNK        -0.0787 
     12 C12        30.8860   -1.4461   -5.3238 C.ar      12 UNK        -0.0862 
     13 C13        30.6262   -2.8049   -5.5216 C.ar      12 UNK        -0.0733 
     14 C14        30.7860   -3.6950   -4.4564 C.ar      12 UNK        -0.0832 
     15 C15        30.1903   -3.3041   -6.8930 C.3       12 UNK         0.0240 
     16 S16        28.6644   -4.2989   -6.8616 S.3       12 UNK        -0.2522 
     17 C17        27.4816   -3.1834   -6.0415 C.3       12 UNK        -0.0967 
     18 CA         26.9078   -2.1017   -6.9962 C.3       5 UNK         0.0660 
     19 N          25.4532   -1.9971   -6.8781 N.am      5 UNK        -0.4015 
     20 C          24.6488   -1.3829   -7.7541 C.2       4 UNK         0.4946 
     21 O          25.0442   -0.8463   -8.7891 O.2       4 UNK        -0.5353 
     22 CA         23.1515   -1.3418   -7.4003 C.3       4 UNK         0.0277 
     23 CB         22.4370   -2.5908   -7.9402 C.3       4 UNK        -0.1981 
     24 N          22.9039   -1.2186   -5.9592 N.am      4 UNK        -0.4209 
     25 C          23.1940   -0.1230   -5.2438 C.2       3 UNK         0.4942 
     26 O          23.6847    0.8969   -5.7259 O.2       3 UNK        -0.5208 
     27 CA         22.9404   -0.1897   -3.7278 C.3       3 UNK         0.0250 
     28 CB         21.4443   -0.0128   -3.4207 C.3       3 UNK        -0.1990 
     29 N          23.4445   -1.3972   -3.0565 N.am      3 UNK        -0.4232 
     30 C          24.6924   -1.8774   -3.1525 C.2       2 UNK         0.4993 
     31 O          25.5259   -1.4706   -3.9647 O.2       2 UNK        -0.5286 
     32 CA         25.0866   -3.0140   -2.1925 C.3       2 UNK         0.0209 
     33 CB         24.7855   -4.3825   -2.8237 C.3       2 UNK        -0.1931 
     34 N          26.5160   -2.9348   -1.8722 N.am      2 UNK        -0.4546 
     35 C          27.0694   -1.9351   -1.1715 C.2       1 UNK         0.5154 
     36 O          26.4052   -1.1121   -0.5349 O.2       1 UNK        -0.5181 
     37 C          27.5709   -0.7304   -6.7684 C.2       5 UNK         0.5014 
     38 O          28.4394   -0.3319   -7.5450 O.2       5 UNK        -0.5248 
     39 N          27.1181   -0.0188   -5.7274 N.am      6 UNK        -0.4434 
     40 CA         27.5269    1.3454   -5.3967 C.3       6 UNK         0.0363 
     41 CB         26.9435    1.7334   -4.0290 C.3       6 UNK        -0.1936 
     42 C          27.1267    2.3647   -6.4779 C.2       6 UNK         0.5081 
     43 O          27.9089    3.2709   -6.7611 O.2       6 UNK        -0.5248 
     44 N          25.9435    2.1851   -7.0856 N.am      7 UNK        -0.4718 
     45 CA         25.4677    2.9743   -8.2265 C.3       7 UNK         0.0273 
     46 CB         23.9814    2.6822   -8.4849 C.3       7 UNK        -0.1935 
     47 C          26.2982    2.7417   -9.5005 C.2       7 UNK         0.5018 
     48 O          26.5903    3.7056  -10.2094 O.2       7 UNK        -0.5186 
     49 N          26.6853    1.4822   -9.7568 N.am      8 UNK        -0.4240 
     50 CA         27.6188    1.1062  -10.8253 C.3       8 UNK         0.0235 
     51 CB         27.5953   -0.4193  -11.0164 C.3       8 UNK        -0.2000 
     52 C          29.0558    1.5964  -10.5633 C.2       8 UNK         0.4941 
     53 O          29.7823    1.8701  -11.5189 O.2       8 UNK        -0.5273 
     54 N          29.4245    1.6978   -9.2779 N.am      9 UNK        -0.4262 
     55 CA         30.6985    2.1707   -8.7282 C.3       9 UNK         0.0264 
     56 CB         30.9538    3.6467   -9.0981 C.3       9 UNK        -0.1955 
     57 C          31.8885    1.2520   -9.0579 C.2       9 UNK         0.5031 
     58 O          33.0308    1.7141   -9.0940 O.2       9 UNK        -0.5390 
     59 N          31.6210   -0.0474   -9.2464 N.am      10 UNK        -0.4204 
     60 CA         32.6189   -1.0872   -9.5217 C.3       10 UNK         0.0237 
     61 CB         31.9456   -2.2246  -10.3135 C.3       10 UNK        -0.1985 
     62 C          33.3068   -1.5781   -8.2303 C.2       10 UNK         0.4970 
     63 O          33.3781   -2.7837   -7.9897 O.2       10 UNK        -0.4914 
     64 N          33.7688   -0.6301   -7.4074 N.am      11 UNK        -0.4285 
     65 CA         34.3004   -0.8583   -6.0541 C.3       11 UNK         0.1007 
     66 C          35.7348   -1.4594   -6.0028 C.2       11 UNK         0.5703 
     67 N          36.4563   -1.5609   -7.1130 N.am      11 UNK        -0.7361 
     68 O          36.2012   -1.8464   -4.9338 O.2       11 UNK        -0.4986 
     69 C69        34.1935    0.4137   -5.1645 C.3       12 UNK        -0.0947 
     70 S70        32.5767    1.2640   -5.2508 S.3       12 UNK        -0.2240 
     71 C71        31.6557    0.5010   -3.8740 C.3       12 UNK         0.0194 
     72 H72        30.5475    1.7614    0.7057 H         1 UNK         0.0906 
     73 H73        28.8626    2.2716    0.5707 H         1 UNK         0.0906 
     74 H74        29.8164    1.9805   -0.8849 H         1 UNK         0.0906 
     75 H75        29.2566    0.0784   -1.8489 H         1 UNK         0.3140 
     76 H76        28.8466   -1.9895   -2.3021 H         1 UNK         0.1085 
     77 H77        28.8256   -3.0961    0.5283 H         1 UNK         0.0836 
     78 H78        30.3343   -2.5188   -0.0990 H         1 UNK         0.0836 
     79 H79        31.9645   -3.8420   -1.2700 H         1 UNK         0.0731 
     80 H80        31.6597   -5.1604   -2.3707 H         1 UNK         0.0731 
     81 H81        31.8364   -1.5267   -2.0660 H         1 UNK         0.1312 
     82 H82        30.7525   -0.7520   -6.1420 H         1 UNK         0.1406 
     83 H83        30.5627   -4.7441   -4.5967 H         1 UNK         0.1631 
     84 H84        30.9909   -3.9145   -7.3119 H         1 UNK         0.0717 
     85 H85        30.0499   -2.4715   -7.5822 H         1 UNK         0.0717 
     86 H86        26.6815   -3.8297   -5.6787 H         1 UNK         0.0934 
     87 H87        27.9211   -2.7606   -5.1355 H         1 UNK         0.0934 
     88 H88        27.1143   -2.3895   -8.0295 H         1 UNK         0.0739 
     89 H89        25.0547   -2.3170   -6.0067 H         1 UNK         0.3093 
     90 H90        22.7221   -0.4663   -7.8920 H         1 UNK         0.0818 
     91 H91        22.5900   -2.6919   -9.0157 H         1 UNK         0.0819 
     92 H92        22.8051   -3.5044   -7.4717 H         1 UNK         0.0819 
     93 H93        21.3612   -2.5362   -7.7724 H         1 UNK         0.0819 
     94 H94        22.5027   -2.0151   -5.4854 H         1 UNK         0.3041 
     95 H95        23.4726    0.6548   -3.2849 H         1 UNK         0.0784 
     96 H96        21.0499    0.8839   -3.9013 H         1 UNK         0.0793 
     97 H97        20.8541   -0.8589   -3.7749 H         1 UNK         0.0793 
     98 H98        21.2685    0.0944   -2.3502 H         1 UNK         0.0793 
     99 H99        22.8220   -1.8173   -2.3810 H         1 UNK         0.3024 
    100 H100       24.5173   -2.9111   -1.2658 H         1 UNK         0.1171 
    101 H101       25.3377   -4.5324   -3.7518 H         1 UNK         0.0786 
    102 H102       25.0450   -5.1961   -2.1459 H         1 UNK         0.0786 
    103 H103       23.7243   -4.4830   -3.0556 H         1 UNK         0.0786 
    104 H104       27.1252   -3.5765   -2.3595 H         1 UNK         0.2977 
    105 H105       26.4305   -0.4541   -5.1115 H         1 UNK         0.3127 
    106 H106       28.6165    1.3536   -5.3210 H         1 UNK         0.0770 
    107 H107       27.2682    2.7324   -3.7353 H         1 UNK         0.0814 
    108 H108       25.8529    1.7341   -4.0435 H         1 UNK         0.0814 
    109 H109       27.2641    1.0428   -3.2489 H         1 UNK         0.0814 
    110 H110       25.3130    1.4734   -6.7277 H         1 UNK         0.2983 
    111 H111       25.5634    4.0297   -7.9619 H         1 UNK         0.0947 
    112 H112       23.8125    1.6346   -8.7340 H         1 UNK         0.0806 
    113 H113       23.6048    3.2801   -9.3159 H         1 UNK         0.0806 
    114 H114       23.3731    2.9212   -7.6125 H         1 UNK         0.0806 
    115 H115       26.3330    0.7328   -9.1695 H         1 UNK         0.3000 
    116 H116       27.2761    1.5718  -11.7518 H         1 UNK         0.0850 
    117 H117       28.2616   -0.7221  -11.8253 H         1 UNK         0.0810 
    118 H118       26.5951   -0.7705  -11.2708 H         1 UNK         0.0810 
    119 H119       27.9134   -0.9466  -10.1168 H         1 UNK         0.0810 
    120 H120       28.7724    1.3390   -8.5867 H         1 UNK         0.3040 
    121 H121       30.5822    2.1242   -7.6442 H         1 UNK         0.0766 
    122 H122       31.8174    4.0405   -8.5608 H         1 UNK         0.0812 
    123 H123       30.0990    4.2711   -8.8373 H         1 UNK         0.0812 
    124 H124       31.1497    3.7701  -10.1635 H         1 UNK         0.0812 
    125 H125       30.6606   -0.3468   -9.1491 H         1 UNK         0.3205 
    126 H126       33.4014   -0.6652  -10.1561 H         1 UNK         0.0754 
    127 H127       32.6691   -2.9946  -10.5850 H         1 UNK         0.0769 
    128 H128       31.5079   -1.8548  -11.2411 H         1 UNK         0.0769 
    129 H129       31.1543   -2.7082   -9.7406 H         1 UNK         0.0769 
    130 H130       33.6855    0.3368   -7.7002 H         1 UNK         0.2981 
    131 H131       33.6683   -1.6199   -5.5960 H         1 UNK         0.0541 
    132 H132       37.3825   -1.9554   -7.0670 H         1 UNK         0.3459 
    133 H133       36.0810   -1.2501   -7.9944 H         1 UNK         0.3459 
    134 H134       34.9511    1.1403   -5.4633 H         1 UNK         0.0612 
    135 H135       34.4055    0.1684   -4.1223 H         1 UNK         0.0612 
    136 H136       30.7128    1.0351   -3.7530 H         1 UNK         0.0624 
    137 H137       32.2186    0.6520   -2.9516 H         1 UNK         0.0624 
@<TRIPOS>BOND
     1    1    2 1    
     2    1   72 1    
     3    1   73 1    
     4    1   74 1    
     5    2    3 2    
     6    2    4 am   BACKBONE|DICT|INTERRES
     7    4    5 1    
     8    4   75 1    
     9    5    6 1    
    10    5   35 1    
    11    5   76 1    
    12    6    7 1    
    13    6   77 1    
    14    6   78 1    
    15    7    8 1    
    16    8    9 1    
    17    8   79 1    
    18    8   80 1    
    19    9   10 ar   
    20    9   14 ar   
    21   10   11 ar   
    22   10   81 1    
    23   11   12 ar   
    24   11   71 1    
    25   12   13 ar   
    26   12   82 1    
    27   13   14 ar   
    28   13   15 1    
    29   14   83 1    
    30   15   16 1    
    31   15   84 1    
    32   15   85 1    
    33   16   17 1    
    34   17   18 1    
    35   17   86 1    
    36   17   87 1    
    37   18   19 1    
    38   18   37 1    
    39   18   88 1    
    40   19   20 am   BACKBONE|DICT|INTERRES
    41   19   89 1    
    42   20   21 2    
    43   20   22 1    
    44   22   23 1    
    45   22   24 1    
    46   22   90 1    
    47   23   91 1    
    48   23   92 1    
    49   23   93 1    
    50   24   25 am   BACKBONE|DICT|INTERRES
    51   24   94 1    
    52   25   26 2    
    53   25   27 1    
    54   27   28 1    
    55   27   29 1    
    56   27   95 1    
    57   28   96 1    
    58   28   97 1    
    59   28   98 1    
    60   29   30 am   BACKBONE|DICT|INTERRES
    61   29   99 1    
    62   30   31 2    
    63   30   32 1    
    64   32   33 1    
    65   32   34 1    
    66   32  100 1    
    67   33  101 1    
    68   33  102 1    
    69   33  103 1    
    70   34   35 am   BACKBONE|DICT|INTERRES
    71   34  104 1    
    72   35   36 2    
    73   37   38 2    
    74   37   39 am   BACKBONE|DICT|INTERRES
    75   39   40 1    
    76   39  105 1    
    77   40   41 1    
    78   40   42 1    
    79   40  106 1    
    80   41  107 1    
    81   41  108 1    
    82   41  109 1    
    83   42   43 2    
    84   42   44 am   BACKBONE|DICT|INTERRES
    85   44   45 1    
    86   44  110 1    
    87   45   46 1    
    88   45   47 1    
    89   45  111 1    
    90   46  112 1    
    91   46  113 1    
    92   46  114 1    
    93   47   48 2    
    94   47   49 am   BACKBONE|DICT|INTERRES
    95   49   50 1    
    96   49  115 1    
    97   50   51 1    
    98   50   52 1    
    99   50  116 1    
   100   51  117 1    
   101   51  118 1    
   102   51  119 1    
   103   52   53 2    
   104   52   54 am   BACKBONE|DICT|INTERRES
   105   54   55 1    
   106   54  120 1    
   107   55   56 1    
   108   55   57 1    
   109   55  121 1    
   110   56  122 1    
   111   56  123 1    
   112   56  124 1    
   113   57   58 2    
   114   57   59 am   BACKBONE|DICT|INTERRES
   115   59   60 1    
   116   59  125 1    
   117   60   61 1    
   118   60   62 1    
   119   60  126 1    
   120   61  127 1    
   121   61  128 1    
   122   61  129 1    
   123   62   63 2    
   124   62   64 am   BACKBONE|DICT|INTERRES
   125   64   65 1    
   126   64  130 1    
   127   65   66 1    
   128   65   69 1    
   129   65  131 1    
   130   66   67 am   BACKBONE|DICT|INTERRES
   131   66   68 2    
   132   67  132 1    
   133   67  133 1    
   134   69   70 1    
   135   69  134 1    
   136   69  135 1    
   137   70   71 1    
   138   71  136 1    
   139   71  137 1    
@<TRIPOS>SUBSTRUCTURE
     1 UNK         1 GROUP             0       ****    0 ROOT    
