@<TRIPOS>MOLECULE
3R137
137   139    1
SMALL
USER_CHARGES


@<TRIPOS>ATOM
      1 CA         29.3147   -0.5534   -2.6907 C.3       0 UNK        -0.2020 
      2 C          29.9102   -1.0025   -1.3568 C.2       0 UNK         0.4855 
      3 O          30.7427   -0.2890   -0.8010 O.2       0 UNK        -0.5197 
      4 N          29.5377   -2.1683   -0.8091 N.am      1 UNK        -0.4892 
      5 CA         28.5277   -3.1063   -1.3180 C.3       1 UNK         0.0835 
      6 C6         28.6106   -4.4978   -0.6342 C.3       12 UNK        -0.0855 
      7 S7         30.2944   -5.2038   -0.5421 S.3       12 UNK        -0.2931 
      8 C8         30.5461   -5.8867   -2.2177 C.3       12 UNK         0.0378 
      9 C9         30.7792   -4.8102   -3.2739 C.ar      12 UNK        -0.0802 
     10 C10        31.7004   -3.7811   -3.0508 C.ar      12 UNK        -0.0944 
     11 C11        31.8931   -2.7790   -4.0037 C.ar      12 UNK        -0.0787 
     12 C12        31.1747   -2.8207   -5.2016 C.ar      12 UNK        -0.0862 
     13 C13        30.2711   -3.8569   -5.4551 C.ar      12 UNK        -0.0733 
     14 C14        30.0812   -4.8506   -4.4856 C.ar      12 UNK        -0.0832 
     15 C15        29.5553   -3.9069   -6.8030 C.3       12 UNK         0.0240 
     16 S16        27.8228   -4.4712   -6.7158 S.3       12 UNK        -0.2522 
     17 C17        27.0087   -3.0758   -5.8756 C.3       12 UNK        -0.0967 
     18 CA         26.4213   -2.0520   -6.8852 C.3       5 UNK         0.0660 
     19 N          25.0521   -1.6555   -6.5545 N.am      5 UNK        -0.4015 
     20 C          24.2030   -1.0643   -7.4075 C.2       4 UNK         0.4946 
     21 O          24.4644   -0.8433   -8.5895 O.2       4 UNK        -0.5353 
     22 CA         22.8430   -0.6162   -6.8417 C.3       4 UNK         0.0277 
     23 CB         21.8018   -1.7360   -6.9966 C.3       4 UNK        -0.1981 
     24 N          22.9158   -0.2070   -5.4364 N.am      4 UNK        -0.4209 
     25 C          23.5816    0.8708   -4.9966 C.2       3 UNK         0.4942 
     26 O          24.1411    1.6768   -5.7384 O.2       3 UNK        -0.5208 
     27 CA         23.7018    1.0367   -3.4712 C.3       3 UNK         0.0250 
     28 CB         22.4871    1.7938   -2.9121 C.3       3 UNK        -0.1990 
     29 N          23.8664   -0.2358   -2.7553 N.am      3 UNK        -0.4232 
     30 C          24.8795   -1.0912   -2.9513 C.2       2 UNK         0.4993 
     31 O          25.7796   -0.9061   -3.7759 O.2       2 UNK        -0.5286 
     32 CA         24.8406   -2.4056   -2.1556 C.3       2 UNK         0.0209 
     33 CB         23.9235   -3.4256   -2.8518 C.3       2 UNK        -0.1931 
     34 N          26.1842   -2.9768   -2.0345 N.am      2 UNK        -0.4546 
     35 C          27.1064   -2.5213   -1.1782 C.2       1 UNK         0.5154 
     36 O          26.8662   -1.6832   -0.3044 O.2       1 UNK        -0.5181 
     37 C          27.3180   -0.8107   -7.0302 C.2       5 UNK         0.5014 
     38 O          28.0579   -0.7163   -8.0072 O.2       5 UNK        -0.5248 
     39 N          27.1941    0.1409   -6.0915 N.am      6 UNK        -0.4434 
     40 CA         27.8650    1.4439   -6.1375 C.3       6 UNK         0.0363 
     41 CB         27.5860    2.2257   -4.8445 C.3       6 UNK        -0.1936 
     42 C          27.4739    2.2795   -7.3696 C.2       6 UNK         0.5081 
     43 O          28.3425    2.9033   -7.9785 O.2       6 UNK        -0.5248 
     44 N          26.1842    2.2544   -7.7346 N.am      7 UNK        -0.4718 
     45 CA         25.6581    2.8836   -8.9484 C.3       7 UNK         0.0273 
     46 CB         24.1221    2.8449   -8.9259 C.3       7 UNK        -0.1935 
     47 C          26.1993    2.2472  -10.2415 C.2       7 UNK         0.5018 
     48 O          26.4332    2.9704  -11.2108 O.2       7 UNK        -0.5186 
     49 N          26.3917    0.9201  -10.2348 N.am      8 UNK        -0.4240 
     50 CA         26.9811    0.1651  -11.3401 C.3       8 UNK         0.0235 
     51 CB         26.6592   -1.3315  -11.1878 C.3       8 UNK        -0.2000 
     52 C          28.4954    0.4016  -11.4635 C.2       8 UNK         0.4941 
     53 O          28.9554    0.7822  -12.5414 O.2       8 UNK        -0.5273 
     54 N          29.2399    0.1755  -10.3731 N.am      9 UNK        -0.4262 
     55 CA         30.6941    0.3016  -10.3082 C.3       9 UNK         0.0264 
     56 CB         31.3749   -0.8390  -11.0964 C.3       9 UNK        -0.1955 
     57 C          31.1400    0.3135   -8.8402 C.2       9 UNK         0.5031 
     58 O          31.3884   -0.7507   -8.2689 O.2       9 UNK        -0.5390 
     59 N          31.2380    1.5129   -8.2525 N.am      10 UNK        -0.4204 
     60 CA         31.8002    1.7347   -6.9171 C.3       10 UNK         0.0237 
     61 CB         31.5196    3.1814   -6.4759 C.3       10 UNK        -0.1985 
     62 C          33.3115    1.4478   -6.8707 C.2       10 UNK         0.4970 
     63 O          34.0058    1.6131   -7.8769 O.2       10 UNK        -0.4914 
     64 N          33.7873    1.0546   -5.6855 N.am      11 UNK        -0.4285 
     65 CA         35.1893    0.6990   -5.4127 C.3       11 UNK         0.1007 
     66 C          36.1310    1.9185   -5.1875 C.2       11 UNK         0.5703 
     67 N          35.6312    3.1470   -5.1170 N.am      11 UNK        -0.7361 
     68 O          37.3435    1.7469   -5.0858 O.2       11 UNK        -0.4986 
     69 C69        35.2917   -0.3191   -4.2449 C.3       12 UNK        -0.0947 
     70 S70        34.4342   -1.8881   -4.6093 S.3       12 UNK        -0.2240 
     71 C71        32.8611   -1.6400   -3.7323 C.3       12 UNK         0.0194 
     72 H72        29.8744    0.2918   -3.0904 H         1 UNK         0.0906 
     73 H73        29.3468   -1.3445   -3.4377 H         1 UNK         0.0906 
     74 H74        28.2805   -0.2368   -2.5606 H         1 UNK         0.0906 
     75 H75        29.9533   -2.4389    0.0702 H         1 UNK         0.3140 
     76 H76        28.7157   -3.2515   -2.3818 H         1 UNK         0.1085 
     77 H77        28.2391   -4.4353    0.3909 H         1 UNK         0.0836 
     78 H78        27.9613   -5.2136   -1.1422 H         1 UNK         0.0836 
     79 H79        31.4175   -6.5425   -2.1983 H         1 UNK         0.0731 
     80 H80        29.6934   -6.5158   -2.4778 H         1 UNK         0.0731 
     81 H81        32.2533   -3.7488   -2.1220 H         1 UNK         0.1312 
     82 H82        31.3347   -2.0510   -5.9453 H         1 UNK         0.1406 
     83 H83        29.3913   -5.6611   -4.6773 H         1 UNK         0.1631 
     84 H84        29.5819   -2.9307   -7.2904 H         1 UNK         0.0717 
     85 H85        30.1055   -4.5865   -7.4547 H         1 UNK         0.0717 
     86 H86        26.2124   -3.5150   -5.2747 H         1 UNK         0.0934 
     87 H87        27.6883   -2.6180   -5.1532 H         1 UNK         0.0934 
     88 H88        26.3702   -2.5204   -7.8711 H         1 UNK         0.0739 
     89 H89        24.7962   -1.7152   -5.5796 H         1 UNK         0.3093 
     90 H90        22.5098    0.2440   -7.4261 H         1 UNK         0.0818 
     91 H91        20.8137   -1.4068   -6.6742 H         1 UNK         0.0819 
     92 H92        21.7138   -2.0433   -8.0398 H         1 UNK         0.0819 
     93 H93        22.0675   -2.6215   -6.4177 H         1 UNK         0.0819 
     94 H94        22.4676   -0.8058   -4.7584 H         1 UNK         0.3041 
     95 H95        24.5941    1.6365   -3.2798 H         1 UNK         0.0784 
     96 H96        22.3582    2.7515   -3.4188 H         1 UNK         0.0793 
     97 H97        21.5622    1.2301   -3.0407 H         1 UNK         0.0793 
     98 H98        22.6065    2.0064   -1.8495 H         1 UNK         0.0793 
     99 H99        23.1593   -0.4626   -2.0701 H         1 UNK         0.3024 
    100 H100       24.4483   -2.2002   -1.1564 H         1 UNK         0.1171 
    101 H101       23.8857   -4.3640   -2.2979 H         1 UNK         0.0786 
    102 H102       22.9001   -3.0542   -2.9187 H         1 UNK         0.0786 
    103 H103       24.2543   -3.6511   -3.8658 H         1 UNK         0.0786 
    104 H104       26.4469   -3.6607   -2.7284 H         1 UNK         0.2977 
    105 H105       26.5899   -0.0436   -5.2942 H         1 UNK         0.3127 
    106 H106       28.9368    1.2514   -6.1965 H         1 UNK         0.0770 
    107 H107       26.5272    2.4596   -4.7338 H         1 UNK         0.0814 
    108 H108       28.1295    3.1714   -4.8389 H         1 UNK         0.0814 
    109 H109       27.8976    1.6690   -3.9627 H         1 UNK         0.0814 
    110 H110       25.5127    1.7959   -7.1244 H         1 UNK         0.2983 
    111 H111       25.9727    3.9296   -8.9415 H         1 UNK         0.0947 
    112 H112       23.7065    3.3505   -9.7986 H         1 UNK         0.0806 
    113 H113       23.7249    3.3439   -8.0417 H         1 UNK         0.0806 
    114 H114       23.7447    1.8223   -8.9313 H         1 UNK         0.0806 
    115 H115       26.1302    0.3954   -9.4088 H         1 UNK         0.3000 
    116 H116       26.5167    0.5086  -12.2672 H         1 UNK         0.0850 
    117 H117       25.5828   -1.5043  -11.1775 H         1 UNK         0.0810 
    118 H118       27.0702   -1.7484  -10.2684 H         1 UNK         0.0810 
    119 H119       27.0724   -1.9050  -12.0185 H         1 UNK         0.0810 
    120 H120       28.7855   -0.1295   -9.5089 H         1 UNK         0.3040 
    121 H121       30.9852    1.2524  -10.7598 H         1 UNK         0.0766 
    122 H122       31.1658   -0.7733  -12.1638 H         1 UNK         0.0812 
    123 H123       31.0439   -1.8191  -10.7506 H         1 UNK         0.0812 
    124 H124       32.4587   -0.8001  -10.9791 H         1 UNK         0.0812 
    125 H125       30.9813    2.3365   -8.7778 H         1 UNK         0.3205 
    126 H126       31.3009    1.0527   -6.2258 H         1 UNK         0.0754 
    127 H127       31.9111    3.3722   -5.4759 H         1 UNK         0.0769 
    128 H128       30.4509    3.3897   -6.4420 H         1 UNK         0.0769 
    129 H129       31.9800    3.9049   -7.1501 H         1 UNK         0.0769 
    130 H130       33.1594    0.9914   -4.8997 H         1 UNK         0.2981 
    131 H131       35.5791    0.2018   -6.3033 H         1 UNK         0.0541 
    132 H132       34.6413    3.3043   -5.2086 H         1 UNK         0.3459 
    133 H133       36.2560    3.9253   -4.9763 H         1 UNK         0.3459 
    134 H134       34.9030    0.1100   -3.3195 H         1 UNK         0.0612 
    135 H135       36.3356   -0.5690   -4.0466 H         1 UNK         0.0612 
    136 H136       32.4034   -0.7014   -4.0439 H         1 UNK         0.0624 
    137 H137       33.0553   -1.5479   -2.6623 H         1 UNK         0.0624 
@<TRIPOS>BOND
     1    1    2 1    
     2    1   72 1    
     3    1   73 1    
     4    1   74 1    
     5    2    3 2    
     6    2    4 am   BACKBONE|DICT|INTERRES
     7    4    5 1    
     8    4   75 1    
     9    5    6 1    
    10    5   35 1    
    11    5   76 1    
    12    6    7 1    
    13    6   77 1    
    14    6   78 1    
    15    7    8 1    
    16    8    9 1    
    17    8   79 1    
    18    8   80 1    
    19    9   10 ar   
    20    9   14 ar   
    21   10   11 ar   
    22   10   81 1    
    23   11   12 ar   
    24   11   71 1    
    25   12   13 ar   
    26   12   82 1    
    27   13   14 ar   
    28   13   15 1    
    29   14   83 1    
    30   15   16 1    
    31   15   84 1    
    32   15   85 1    
    33   16   17 1    
    34   17   18 1    
    35   17   86 1    
    36   17   87 1    
    37   18   19 1    
    38   18   37 1    
    39   18   88 1    
    40   19   20 am   BACKBONE|DICT|INTERRES
    41   19   89 1    
    42   20   21 2    
    43   20   22 1    
    44   22   23 1    
    45   22   24 1    
    46   22   90 1    
    47   23   91 1    
    48   23   92 1    
    49   23   93 1    
    50   24   25 am   BACKBONE|DICT|INTERRES
    51   24   94 1    
    52   25   26 2    
    53   25   27 1    
    54   27   28 1    
    55   27   29 1    
    56   27   95 1    
    57   28   96 1    
    58   28   97 1    
    59   28   98 1    
    60   29   30 am   BACKBONE|DICT|INTERRES
    61   29   99 1    
    62   30   31 2    
    63   30   32 1    
    64   32   33 1    
    65   32   34 1    
    66   32  100 1    
    67   33  101 1    
    68   33  102 1    
    69   33  103 1    
    70   34   35 am   BACKBONE|DICT|INTERRES
    71   34  104 1    
    72   35   36 2    
    73   37   38 2    
    74   37   39 am   BACKBONE|DICT|INTERRES
    75   39   40 1    
    76   39  105 1    
    77   40   41 1    
    78   40   42 1    
    79   40  106 1    
    80   41  107 1    
    81   41  108 1    
    82   41  109 1    
    83   42   43 2    
    84   42   44 am   BACKBONE|DICT|INTERRES
    85   44   45 1    
    86   44  110 1    
    87   45   46 1    
    88   45   47 1    
    89   45  111 1    
    90   46  112 1    
    91   46  113 1    
    92   46  114 1    
    93   47   48 2    
    94   47   49 am   BACKBONE|DICT|INTERRES
    95   49   50 1    
    96   49  115 1    
    97   50   51 1    
    98   50   52 1    
    99   50  116 1    
   100   51  117 1    
   101   51  118 1    
   102   51  119 1    
   103   52   53 2    
   104   52   54 am   BACKBONE|DICT|INTERRES
   105   54   55 1    
   106   54  120 1    
   107   55   56 1    
   108   55   57 1    
   109   55  121 1    
   110   56  122 1    
   111   56  123 1    
   112   56  124 1    
   113   57   58 2    
   114   57   59 am   BACKBONE|DICT|INTERRES
   115   59   60 1    
   116   59  125 1    
   117   60   61 1    
   118   60   62 1    
   119   60  126 1    
   120   61  127 1    
   121   61  128 1    
   122   61  129 1    
   123   62   63 2    
   124   62   64 am   BACKBONE|DICT|INTERRES
   125   64   65 1    
   126   64  130 1    
   127   65   66 1    
   128   65   69 1    
   129   65  131 1    
   130   66   67 am   BACKBONE|DICT|INTERRES
   131   66   68 2    
   132   67  132 1    
   133   67  133 1    
   134   69   70 1    
   135   69  134 1    
   136   69  135 1    
   137   70   71 1    
   138   71  136 1    
   139   71  137 1    
@<TRIPOS>SUBSTRUCTURE
     1 UNK         1 GROUP             0       ****    0 ROOT    
