@<TRIPOS>MOLECULE
3R137
137   139    1
SMALL
USER_CHARGES


@<TRIPOS>ATOM
      1 CA         27.5486   -6.7805    0.5735 C.3       0 UNK        -0.2020 
      2 C          27.4371   -5.3939   -0.0407 C.2       0 UNK         0.4855 
      3 O          27.4427   -5.2707   -1.2655 O.2       0 UNK        -0.5197 
      4 N          27.3338   -4.3561    0.8020 N.am      1 UNK        -0.4892 
      5 CA         27.2286   -2.9193    0.4869 C.3       1 UNK         0.0835 
      6 C6         28.4238   -2.3463   -0.3194 C.3       12 UNK        -0.0855 
      7 S7         30.0132   -2.4752    0.5688 S.3       12 UNK        -0.2931 
      8 C8         30.8574   -3.8220   -0.3235 C.3       12 UNK         0.0378 
      9 C9         31.0949   -3.4947   -1.7919 C.ar      12 UNK        -0.0802 
     10 C10        32.0215   -2.5131   -2.1544 C.ar      12 UNK        -0.0944 
     11 C11        32.2575   -2.2277   -3.5017 C.ar      12 UNK        -0.0787 
     12 C12        31.5661   -2.9365   -4.4888 C.ar      12 UNK        -0.0862 
     13 C13        30.6201   -3.9070   -4.1411 C.ar      12 UNK        -0.0733 
     14 C14        30.3978   -4.1852   -2.7892 C.ar      12 UNK        -0.0832 
     15 C15        29.8584   -4.6912   -5.2072 C.3       12 UNK         0.0240 
     16 S16        29.2948   -3.6787   -6.6161 S.3       12 UNK        -0.2522 
     17 C17        28.0400   -2.6162   -5.8338 C.3       12 UNK        -0.0967 
     18 CA         27.3968   -1.6385   -6.8551 C.3       5 UNK         0.0660 
     19 N          25.9639   -1.4561   -6.5980 N.am      5 UNK        -0.4015 
     20 C          25.0988   -0.9374   -7.4836 C.2       4 UNK         0.4946 
     21 O          25.4211   -0.5588   -8.6081 O.2       4 UNK        -0.5353 
     22 CA         23.6316   -0.7808   -7.0441 C.3       4 UNK         0.0277 
     23 CB         22.8358   -2.0525   -7.3780 C.3       4 UNK        -0.1981 
     24 N          23.4718   -0.4666   -5.6242 N.am      4 UNK        -0.4209 
     25 C          23.9927    0.6022   -5.0047 C.2       3 UNK         0.4942 
     26 O          24.6158    1.4918   -5.5820 O.2       3 UNK        -0.5208 
     27 CA         23.8502    0.6587   -3.4747 C.3       3 UNK         0.0250 
     28 CB         22.6370    1.5162   -3.0819 C.3       3 UNK        -0.1990 
     29 N          23.7515   -0.6565   -2.8275 N.am      3 UNK        -0.4232 
     30 C          24.6683   -1.6315   -2.9128 C.2       2 UNK         0.4993 
     31 O          25.6856   -1.5642   -3.6094 O.2       2 UNK        -0.5286 
     32 CA         24.3846   -2.9149   -2.1182 C.3       2 UNK         0.0209 
     33 CB         24.1227   -4.0939   -3.0698 C.3       2 UNK        -0.1931 
     34 N          25.5171   -3.2367   -1.2541 N.am      2 UNK        -0.4546 
     35 C          25.8968   -2.5271   -0.1855 C.2       1 UNK         0.5154 
     36 O          25.2427   -1.5881    0.2719 O.2       1 UNK        -0.5181 
     37 C          28.1360   -0.2836   -6.9173 C.2       5 UNK         0.5014 
     38 O          28.9948   -0.0824   -7.7815 O.2       5 UNK        -0.5248 
     39 N          27.7469    0.6395   -6.0250 N.am      6 UNK        -0.4434 
     40 CA         28.2215    2.0219   -6.0032 C.3       6 UNK         0.0363 
     41 CB         27.8590    2.6774   -4.6614 C.3       6 UNK        -0.1936 
     42 C          27.6687    2.8356   -7.1841 C.2       6 UNK         0.5081 
     43 O          28.4312    3.5647   -7.8159 O.2       6 UNK        -0.5248 
     44 N          26.3732    2.6714   -7.4926 N.am      7 UNK        -0.4718 
     45 CA         25.6934    3.3147   -8.6241 C.3       7 UNK         0.0273 
     46 CB         24.1842    3.0393   -8.5482 C.3       7 UNK        -0.1935 
     47 C          26.2530    2.8883   -9.9926 C.2       7 UNK         0.5018 
     48 O          26.3613    3.7266  -10.8880 O.2       7 UNK        -0.5186 
     49 N          26.6399    1.6105  -10.1168 N.am      8 UNK        -0.4240 
     50 CA         27.3557    1.0585  -11.2710 C.3       8 UNK         0.0235 
     51 CB         27.2835   -0.4772  -11.2183 C.3       8 UNK        -0.2000 
     52 C          28.8247    1.5157  -11.3680 C.2       8 UNK         0.4941 
     53 O          29.4487    1.2741  -12.4021 O.2       8 UNK        -0.5273 
     54 N          29.3515    2.1437  -10.3041 N.am      9 UNK        -0.4262 
     55 CA         30.7284    2.6156  -10.1327 C.3       9 UNK         0.0264 
     56 CB         31.0397    3.7745  -11.1039 C.3       9 UNK        -0.1955 
     57 C          31.7562    1.4716  -10.1985 C.2       9 UNK         0.5031 
     58 O          32.8065    1.6227  -10.8262 O.2       9 UNK        -0.5390 
     59 N          31.4352    0.3412   -9.5508 N.am      10 UNK        -0.4204 
     60 CA         32.3069   -0.8353   -9.4863 C.3       10 UNK         0.0237 
     61 CB         31.4903   -2.0398   -8.9983 C.3       10 UNK        -0.1985 
     62 C          33.5352   -0.6261   -8.5834 C.2       10 UNK         0.4970 
     63 O          34.5707   -1.2493   -8.8211 O.2       10 UNK        -0.4914 
     64 N          33.3909    0.2239   -7.5600 N.am      11 UNK        -0.4285 
     65 CA         34.4353    0.5558   -6.5842 C.3       11 UNK         0.1007 
     66 C          35.5533    1.4446   -7.1913 C.2       11 UNK         0.5703 
     67 N          36.7994    1.2406   -6.7856 N.am      11 UNK        -0.7361 
     68 O          35.2960    2.3441   -7.9891 O.2       11 UNK        -0.4986 
     69 C69        33.8427    1.2078   -5.3048 C.3       12 UNK        -0.0947 
     70 S70        32.4290    0.2938   -4.5996 S.3       12 UNK        -0.2240 
     71 C71        33.2648   -1.1634   -3.9020 C.3       12 UNK         0.0194 
     72 H72        28.4771   -7.2554    0.2576 H         1 UNK         0.0906 
     73 H73        26.7179   -7.4039    0.2437 H         1 UNK         0.0906 
     74 H74        27.5378   -6.7485    1.6628 H         1 UNK         0.0906 
     75 H75        27.3156   -4.5555    1.7930 H         1 UNK         0.3140 
     76 H76        27.2263   -2.4152    1.4552 H         1 UNK         0.1085 
     77 H77        28.2670   -1.2846   -0.5211 H         1 UNK         0.0836 
     78 H78        28.4911   -2.8181   -1.2995 H         1 UNK         0.0836 
     79 H79        31.8178   -4.0117    0.1578 H         1 UNK         0.0731 
     80 H80        30.2816   -4.7416   -0.2175 H         1 UNK         0.0731 
     81 H81        32.5562   -1.9728   -1.3848 H         1 UNK         0.1312 
     82 H82        31.7585   -2.7187   -5.5305 H         1 UNK         0.1406 
     83 H83        29.6802   -4.9451   -2.5113 H         1 UNK         0.1631 
     84 H84        28.9914   -5.1916   -4.7725 H         1 UNK         0.0717 
     85 H85        30.5111   -5.4784   -5.5863 H         1 UNK         0.0717 
     86 H86        27.2844   -3.2824   -5.4134 H         1 UNK         0.0934 
     87 H87        28.4739   -2.0922   -4.9790 H         1 UNK         0.0934 
     88 H88        27.4697   -2.0803   -7.8518 H         1 UNK         0.0739 
     89 H89        25.6440   -1.6773   -5.6607 H         1 UNK         0.3093 
     90 H90        23.2028    0.0464   -7.6117 H         1 UNK         0.0818 
     91 H91        22.9207   -2.2975   -8.4378 H         1 UNK         0.0819 
     92 H92        23.1944   -2.9151   -6.8146 H         1 UNK         0.0819 
     93 H93        21.7748   -1.9262   -7.1618 H         1 UNK         0.0819 
     94 H94        22.9694   -1.1385   -5.0634 H         1 UNK         0.3041 
     95 H95        24.7500    1.1423   -3.0886 H         1 UNK         0.0784 
     96 H96        22.6980    2.5080   -3.5329 H         1 UNK         0.0793 
     97 H97        21.6994    1.0660   -3.4108 H         1 UNK         0.0793 
     98 H98        22.5827    1.6577   -2.0023 H         1 UNK         0.0793 
     99 H99        22.9473   -0.7995   -2.2329 H         1 UNK         0.3024 
    100 H100       23.5033   -2.7696   -1.4895 H         1 UNK         0.1171 
    101 H101       24.9844   -4.2973   -3.7076 H         1 UNK         0.0786 
    102 H102       23.8953   -5.0056   -2.5169 H         1 UNK         0.0786 
    103 H103       23.2730   -3.8902   -3.7227 H         1 UNK         0.0786 
    104 H104       26.1339   -3.9913   -1.5477 H         1 UNK         0.2977 
    105 H105       27.0123    0.4008   -5.3739 H         1 UNK         0.3127 
    106 H106       29.3106    2.0068   -6.0884 H         1 UNK         0.0770 
    107 H107       28.2319    3.7015   -4.6172 H         1 UNK         0.0814 
    108 H108       26.7807    2.7174   -4.5043 H         1 UNK         0.0814 
    109 H109       28.3007    2.1363   -3.8244 H         1 UNK         0.0814 
    110 H110       25.7951    2.1005   -6.8787 H         1 UNK         0.2983 
    111 H111       25.8483    4.3916   -8.5283 H         1 UNK         0.0947 
    112 H112       23.9646    1.9790   -8.6687 H         1 UNK         0.0806 
    113 H113       23.6508    3.5734   -9.3357 H         1 UNK         0.0806 
    114 H114       23.7666    3.3637   -7.5948 H         1 UNK         0.0806 
    115 H115       26.4270    0.9605   -9.3646 H         1 UNK         0.3000 
    116 H116       26.8511    1.3951  -12.1790 H         1 UNK         0.0850 
    117 H117       27.7871   -0.9257  -12.0756 H         1 UNK         0.0810 
    118 H118       26.2509   -0.8261  -11.2325 H         1 UNK         0.0810 
    119 H119       27.7578   -0.8703  -10.3178 H         1 UNK         0.0810 
    120 H120       28.7478    2.3109   -9.5074 H         1 UNK         0.3040 
    121 H121       30.7892    3.0147   -9.1193 H         1 UNK         0.0766 
    122 H122       31.0511    3.4425  -12.1424 H         1 UNK         0.0812 
    123 H123       32.0170    4.2095  -10.8915 H         1 UNK         0.0812 
    124 H124       30.3037    4.5735  -11.0144 H         1 UNK         0.0812 
    125 H125       30.5489    0.2836   -9.0544 H         1 UNK         0.3205 
    126 H126       32.6666   -1.0511  -10.4946 H         1 UNK         0.0754 
    127 H127       32.0942   -2.9482   -8.9893 H         1 UNK         0.0769 
    128 H128       30.6283   -2.2266   -9.6392 H         1 UNK         0.0769 
    129 H129       31.1248   -1.8804   -7.9838 H         1 UNK         0.0769 
    130 H130       32.5080    0.6954   -7.4411 H         1 UNK         0.2981 
    131 H131       34.9022   -0.3862   -6.2929 H         1 UNK         0.0541 
    132 H132       37.5355    1.8206   -7.1572 H         1 UNK         0.3459 
    133 H133       37.0215    0.5156   -6.1212 H         1 UNK         0.3459 
    134 H134       33.4971    2.2205   -5.5212 H         1 UNK         0.0612 
    135 H135       34.6105    1.3064   -4.5352 H         1 UNK         0.0612 
    136 H136       33.9480   -1.5928   -4.6343 H         1 UNK         0.0624 
    137 H137       33.8722   -0.8555   -3.0496 H         1 UNK         0.0624 
@<TRIPOS>BOND
     1    1    2 1    
     2    1   72 1    
     3    1   73 1    
     4    1   74 1    
     5    2    3 2    
     6    2    4 am   BACKBONE|DICT|INTERRES
     7    4    5 1    
     8    4   75 1    
     9    5    6 1    
    10    5   35 1    
    11    5   76 1    
    12    6    7 1    
    13    6   77 1    
    14    6   78 1    
    15    7    8 1    
    16    8    9 1    
    17    8   79 1    
    18    8   80 1    
    19    9   10 ar   
    20    9   14 ar   
    21   10   11 ar   
    22   10   81 1    
    23   11   12 ar   
    24   11   71 1    
    25   12   13 ar   
    26   12   82 1    
    27   13   14 ar   
    28   13   15 1    
    29   14   83 1    
    30   15   16 1    
    31   15   84 1    
    32   15   85 1    
    33   16   17 1    
    34   17   18 1    
    35   17   86 1    
    36   17   87 1    
    37   18   19 1    
    38   18   37 1    
    39   18   88 1    
    40   19   20 am   BACKBONE|DICT|INTERRES
    41   19   89 1    
    42   20   21 2    
    43   20   22 1    
    44   22   23 1    
    45   22   24 1    
    46   22   90 1    
    47   23   91 1    
    48   23   92 1    
    49   23   93 1    
    50   24   25 am   BACKBONE|DICT|INTERRES
    51   24   94 1    
    52   25   26 2    
    53   25   27 1    
    54   27   28 1    
    55   27   29 1    
    56   27   95 1    
    57   28   96 1    
    58   28   97 1    
    59   28   98 1    
    60   29   30 am   BACKBONE|DICT|INTERRES
    61   29   99 1    
    62   30   31 2    
    63   30   32 1    
    64   32   33 1    
    65   32   34 1    
    66   32  100 1    
    67   33  101 1    
    68   33  102 1    
    69   33  103 1    
    70   34   35 am   BACKBONE|DICT|INTERRES
    71   34  104 1    
    72   35   36 2    
    73   37   38 2    
    74   37   39 am   BACKBONE|DICT|INTERRES
    75   39   40 1    
    76   39  105 1    
    77   40   41 1    
    78   40   42 1    
    79   40  106 1    
    80   41  107 1    
    81   41  108 1    
    82   41  109 1    
    83   42   43 2    
    84   42   44 am   BACKBONE|DICT|INTERRES
    85   44   45 1    
    86   44  110 1    
    87   45   46 1    
    88   45   47 1    
    89   45  111 1    
    90   46  112 1    
    91   46  113 1    
    92   46  114 1    
    93   47   48 2    
    94   47   49 am   BACKBONE|DICT|INTERRES
    95   49   50 1    
    96   49  115 1    
    97   50   51 1    
    98   50   52 1    
    99   50  116 1    
   100   51  117 1    
   101   51  118 1    
   102   51  119 1    
   103   52   53 2    
   104   52   54 am   BACKBONE|DICT|INTERRES
   105   54   55 1    
   106   54  120 1    
   107   55   56 1    
   108   55   57 1    
   109   55  121 1    
   110   56  122 1    
   111   56  123 1    
   112   56  124 1    
   113   57   58 2    
   114   57   59 am   BACKBONE|DICT|INTERRES
   115   59   60 1    
   116   59  125 1    
   117   60   61 1    
   118   60   62 1    
   119   60  126 1    
   120   61  127 1    
   121   61  128 1    
   122   61  129 1    
   123   62   63 2    
   124   62   64 am   BACKBONE|DICT|INTERRES
   125   64   65 1    
   126   64  130 1    
   127   65   66 1    
   128   65   69 1    
   129   65  131 1    
   130   66   67 am   BACKBONE|DICT|INTERRES
   131   66   68 2    
   132   67  132 1    
   133   67  133 1    
   134   69   70 1    
   135   69  134 1    
   136   69  135 1    
   137   70   71 1    
   138   71  136 1    
   139   71  137 1    
@<TRIPOS>SUBSTRUCTURE
     1 UNK         1 GROUP             0       ****    0 ROOT    
