@<TRIPOS>MOLECULE
3R137
137   139    1
SMALL
USER_CHARGES


@<TRIPOS>ATOM
      1 CA         25.4678   -7.4908   -0.3377 C.3       0 UNK        -0.2020 
      2 C          25.8658   -6.0956    0.1197 C.2       0 UNK         0.4855 
      3 O          25.4446   -5.6599    1.1915 O.2       0 UNK        -0.5197 
      4 N          26.6753   -5.3918   -0.6838 N.am      1 UNK        -0.4892 
      5 CA         27.1410   -4.0231   -0.4129 C.3       1 UNK         0.0835 
      6 C6         28.3662   -3.6654   -1.2940 C.3       12 UNK        -0.0855 
      7 S7         29.5454   -2.5604   -0.4464 S.3       12 UNK        -0.2931 
      8 C8         31.1199   -3.0329   -1.2340 C.3       12 UNK         0.0378 
      9 C9         31.2242   -2.4795   -2.6479 C.ar      12 UNK        -0.0802 
     10 C10        31.8688   -1.2608   -2.8808 C.ar      12 UNK        -0.0944 
     11 C11        31.9669   -0.7485   -4.1776 C.ar      12 UNK        -0.0787 
     12 C12        31.3768   -1.4408   -5.2378 C.ar      12 UNK        -0.0862 
     13 C13        30.7311   -2.6611   -5.0212 C.ar      12 UNK        -0.0733 
     14 C14        30.6833   -3.1875   -3.7256 C.ar      12 UNK        -0.0832 
     15 C15        30.1071   -3.4018   -6.2003 C.3       12 UNK         0.0240 
     16 S16        28.4603   -4.1082   -5.8567 S.3       12 UNK        -0.2522 
     17 C17        27.5278   -2.6709   -5.2343 C.3       12 UNK        -0.0967 
     18 CA         26.9989   -1.7463   -6.3645 C.3       5 UNK         0.0660 
     19 N          25.5718   -1.4580   -6.2003 N.am      5 UNK        -0.4015 
     20 C          24.7771   -0.9724   -7.1651 C.2       4 UNK         0.4946 
     21 O          25.1614   -0.7451   -8.3115 O.2       4 UNK        -0.5353 
     22 CA         23.3184   -0.6503   -6.7868 C.3       4 UNK         0.0277 
     23 CB         22.4185   -1.8698   -7.0410 C.3       4 UNK        -0.1981 
     24 N          23.1585   -0.2084   -5.3989 N.am      4 UNK        -0.4209 
     25 C          23.7313    0.8842   -4.8734 C.2       3 UNK         0.4942 
     26 O          24.3860    1.6897   -5.5324 O.2       3 UNK        -0.5208 
     27 CA         23.6147    1.0833   -3.3509 C.3       3 UNK         0.0250 
     28 CB         22.4604    2.0438   -3.0248 C.3       3 UNK        -0.1990 
     29 N          23.4501   -0.1586   -2.5827 N.am      3 UNK        -0.4232 
     30 C          24.2965   -1.1988   -2.5950 C.2       2 UNK         0.4993 
     31 O          25.3057   -1.2531   -3.3038 O.2       2 UNK        -0.5286 
     32 CA         23.8925   -2.4088   -1.7378 C.3       2 UNK         0.0209 
     33 CB         22.8310   -3.2476   -2.4703 C.3       2 UNK        -0.1931 
     34 N          25.0342   -3.2703   -1.4307 N.am      2 UNK        -0.4546 
     35 C          26.0112   -2.9773   -0.5604 C.2       1 UNK         0.5154 
     36 O          26.0272   -1.9538    0.1259 O.2       1 UNK        -0.5181 
     37 C          27.8156   -0.4407   -6.4640 C.2       5 UNK         0.5014 
     38 O          28.7256   -0.3441   -7.2902 O.2       5 UNK        -0.5248 
     39 N          27.4460    0.5584   -5.6485 N.am      6 UNK        -0.4434 
     40 CA         28.0120    1.9078   -5.6873 C.3       6 UNK         0.0363 
     41 CB         27.5944    2.6856   -4.4295 C.3       6 UNK        -0.1936 
     42 C          27.6186    2.6685   -6.9655 C.2       6 UNK         0.5081 
     43 O          28.4522    3.3886   -7.5121 O.2       6 UNK        -0.5248 
     44 N          26.3798    2.4695   -7.4405 N.am      7 UNK        -0.4718 
     45 CA         25.8774    2.9962   -8.7133 C.3       7 UNK         0.0273 
     46 CB         24.3558    2.8003   -8.7956 C.3       7 UNK        -0.1935 
     47 C          26.5757    2.3713   -9.9339 C.2       7 UNK         0.5018 
     48 O          26.8687    3.0914  -10.8891 O.2       7 UNK        -0.5186 
     49 N          26.8606    1.0601   -9.8719 N.am      8 UNK        -0.4240 
     50 CA         27.6895    0.3408  -10.8477 C.3       8 UNK         0.0235 
     51 CB         27.5981   -1.1726  -10.5933 C.3       8 UNK        -0.2000 
     52 C          29.1585    0.8050  -10.8407 C.2       8 UNK         0.4941 
     53 O          29.8073    0.7601  -11.8863 O.2       8 UNK        -0.5273 
     54 N          29.6307    1.2688   -9.6737 N.am      9 UNK        -0.4262 
     55 CA         30.9093    1.9376   -9.4208 C.3       9 UNK         0.0264 
     56 CB         30.9747    3.2901  -10.1618 C.3       9 UNK        -0.1955 
     57 C          32.1293    1.0430   -9.6914 C.2       9 UNK         0.5031 
     58 O          33.1157    1.5017  -10.2721 O.2       9 UNK        -0.5390 
     59 N          32.0646   -0.2122   -9.2214 N.am      10 UNK        -0.4204 
     60 CA         33.1425   -1.2069   -9.3371 C.3       10 UNK         0.0237 
     61 CB         32.6520   -2.5636   -8.8066 C.3       10 UNK        -0.1985 
     62 C          34.4623   -0.8013   -8.6466 C.2       10 UNK         0.4970 
     63 O          35.5166   -1.3181   -9.0181 O.2       10 UNK        -0.4914 
     64 N          34.3839    0.1240   -7.6812 N.am      11 UNK        -0.4285 
     65 CA         35.5317    0.7816   -7.0390 C.3       11 UNK         0.1007 
     66 C          36.2683    1.8137   -7.9449 C.2       11 UNK         0.5703 
     67 N          35.7354    2.2065   -9.0973 N.am      11 UNK        -0.7361 
     68 O          37.3573    2.2628   -7.5954 O.2       11 UNK        -0.4986 
     69 C69        35.1361    1.4203   -5.6800 C.3       12 UNK        -0.0947 
     70 S70        34.5256    0.1816   -4.4902 S.3       12 UNK        -0.2240 
     71 C71        32.7399    0.5326   -4.4425 C.3       12 UNK         0.0194 
     72 H72        24.3849   -7.5571   -0.4401 H         1 UNK         0.0906 
     73 H73        25.9155   -7.7505   -1.2969 H         1 UNK         0.0906 
     74 H74        25.7864   -8.2309    0.3959 H         1 UNK         0.0906 
     75 H75        26.9965   -5.8075   -1.5471 H         1 UNK         0.3140 
     76 H76        27.4509   -4.0027    0.6349 H         1 UNK         0.1085 
     77 H77        28.0683   -3.2193   -2.2450 H         1 UNK         0.0836 
     78 H78        28.9081   -4.5764   -1.5520 H         1 UNK         0.0836 
     79 H79        31.9419   -2.6526   -0.6254 H         1 UNK         0.0731 
     80 H80        31.2282   -4.1186   -1.2387 H         1 UNK         0.0731 
     81 H81        32.3121   -0.7189   -2.0564 H         1 UNK         0.1312 
     82 H82        31.4316   -1.0326   -6.2367 H         1 UNK         0.1406 
     83 H83        30.2008   -4.1394   -3.5542 H         1 UNK         0.1631 
     84 H84        30.7770   -4.2086   -6.4997 H         1 UNK         0.0717 
     85 H85        30.0166   -2.7417   -7.0640 H         1 UNK         0.0717 
     86 H86        26.6962   -3.0944   -4.6688 H         1 UNK         0.0934 
     87 H87        28.1118   -2.1290   -4.4879 H         1 UNK         0.0934 
     88 H88        27.1056   -2.2598   -7.3227 H         1 UNK         0.0739 
     89 H89        25.2086   -1.5485   -5.2565 H         1 UNK         0.3093 
     90 H90        22.9815    0.1626   -7.4323 H         1 UNK         0.0818 
     91 H91        21.3690   -1.6332   -6.8643 H         1 UNK         0.0819 
     92 H92        22.5023   -2.2062   -8.0756 H         1 UNK         0.0819 
     93 H93        22.6864   -2.7122   -6.4019 H         1 UNK         0.0819 
     94 H94        22.6264   -0.8084   -4.7862 H         1 UNK         0.3041 
     95 H95        24.5467    1.5455   -3.0191 H         1 UNK         0.0784 
     96 H96        22.5719    2.9854   -3.5650 H         1 UNK         0.0793 
     97 H97        21.4930    1.6225   -3.3011 H         1 UNK         0.0793 
     98 H98        22.4319    2.2855   -1.9621 H         1 UNK         0.0793 
     99 H99        22.6337   -0.2082   -1.9894 H         1 UNK         0.3024 
    100 H100       23.4748   -2.0439   -0.7964 H         1 UNK         0.1171 
    101 H101       21.9344   -2.6614   -2.6756 H         1 UNK         0.0786 
    102 H102       22.5210   -4.1042   -1.8711 H         1 UNK         0.0786 
    103 H103       23.2007   -3.6238   -3.4254 H         1 UNK         0.0786 
    104 H104       25.1106   -4.1287   -1.9552 H         1 UNK         0.2977 
    105 H105       26.6800    0.4024   -5.0081 H         1 UNK         0.3127 
    106 H106       29.1003    1.8135   -5.6801 H         1 UNK         0.0770 
    107 H107       26.5146    2.8251   -4.3759 H         1 UNK         0.0814 
    108 H108       28.0497    3.6767   -4.4188 H         1 UNK         0.0814 
    109 H109       27.9133    2.1733   -3.5216 H         1 UNK         0.0814 
    110 H110       25.7214    1.9468   -6.8682 H         1 UNK         0.2983 
    111 H111       26.0826    4.0689   -8.7298 H         1 UNK         0.0947 
    112 H112       23.9528    3.2652   -9.6963 H         1 UNK         0.0806 
    113 H113       23.8489    3.2511   -7.9421 H         1 UNK         0.0806 
    114 H114       24.0864    1.7452   -8.8277 H         1 UNK         0.0806 
    115 H115       26.4890    0.5165   -9.0983 H         1 UNK         0.3000 
    116 H116       27.2856    0.5449  -11.8416 H         1 UNK         0.0850 
    117 H117       28.1767   -1.7277  -11.3328 H         1 UNK         0.0810 
    118 H118       26.5680   -1.5236  -10.6574 H         1 UNK         0.0810 
    119 H119       27.9822   -1.4429   -9.6099 H         1 UNK         0.0810 
    120 H120       29.0256    1.1766   -8.8659 H         1 UNK         0.3040 
    121 H121       30.9262    2.1539   -8.3516 H         1 UNK         0.0766 
    122 H122       31.8640    3.8520   -9.8739 H         1 UNK         0.0812 
    123 H123       30.1096    3.9104   -9.9258 H         1 UNK         0.0812 
    124 H124       31.0086    3.1586  -11.2437 H         1 UNK         0.0812 
    125 H125       31.2056   -0.5091   -8.7788 H         1 UNK         0.3205 
    126 H126       33.3600   -1.3183  -10.4014 H         1 UNK         0.0754 
    127 H127       33.3855   -3.3451   -9.0102 H         1 UNK         0.0769 
    128 H128       31.7183   -2.8680   -9.2800 H         1 UNK         0.0769 
    129 H129       32.4986   -2.5445   -7.7284 H         1 UNK         0.0769 
    130 H130       33.4773    0.4926   -7.4457 H         1 UNK         0.2981 
    131 H131       36.2691    0.0045   -6.8286 H         1 UNK         0.0541 
    132 H132       34.8386    1.8546   -9.4180 H         1 UNK         0.3459 
    133 H133       36.2374    2.8711   -9.6637 H         1 UNK         0.3459 
    134 H134       34.3927    2.2069   -5.8204 H         1 UNK         0.0612 
    135 H135       36.0005    1.9019   -5.2191 H         1 UNK         0.0612 
    136 H136       32.4154    0.9767   -5.3845 H         1 UNK         0.0624 
    137 H137       32.5345    1.2686   -3.6640 H         1 UNK         0.0624 
@<TRIPOS>BOND
     1    1    2 1    
     2    1   72 1    
     3    1   73 1    
     4    1   74 1    
     5    2    3 2    
     6    2    4 am   BACKBONE|DICT|INTERRES
     7    4    5 1    
     8    4   75 1    
     9    5    6 1    
    10    5   35 1    
    11    5   76 1    
    12    6    7 1    
    13    6   77 1    
    14    6   78 1    
    15    7    8 1    
    16    8    9 1    
    17    8   79 1    
    18    8   80 1    
    19    9   10 ar   
    20    9   14 ar   
    21   10   11 ar   
    22   10   81 1    
    23   11   12 ar   
    24   11   71 1    
    25   12   13 ar   
    26   12   82 1    
    27   13   14 ar   
    28   13   15 1    
    29   14   83 1    
    30   15   16 1    
    31   15   84 1    
    32   15   85 1    
    33   16   17 1    
    34   17   18 1    
    35   17   86 1    
    36   17   87 1    
    37   18   19 1    
    38   18   37 1    
    39   18   88 1    
    40   19   20 am   BACKBONE|DICT|INTERRES
    41   19   89 1    
    42   20   21 2    
    43   20   22 1    
    44   22   23 1    
    45   22   24 1    
    46   22   90 1    
    47   23   91 1    
    48   23   92 1    
    49   23   93 1    
    50   24   25 am   BACKBONE|DICT|INTERRES
    51   24   94 1    
    52   25   26 2    
    53   25   27 1    
    54   27   28 1    
    55   27   29 1    
    56   27   95 1    
    57   28   96 1    
    58   28   97 1    
    59   28   98 1    
    60   29   30 am   BACKBONE|DICT|INTERRES
    61   29   99 1    
    62   30   31 2    
    63   30   32 1    
    64   32   33 1    
    65   32   34 1    
    66   32  100 1    
    67   33  101 1    
    68   33  102 1    
    69   33  103 1    
    70   34   35 am   BACKBONE|DICT|INTERRES
    71   34  104 1    
    72   35   36 2    
    73   37   38 2    
    74   37   39 am   BACKBONE|DICT|INTERRES
    75   39   40 1    
    76   39  105 1    
    77   40   41 1    
    78   40   42 1    
    79   40  106 1    
    80   41  107 1    
    81   41  108 1    
    82   41  109 1    
    83   42   43 2    
    84   42   44 am   BACKBONE|DICT|INTERRES
    85   44   45 1    
    86   44  110 1    
    87   45   46 1    
    88   45   47 1    
    89   45  111 1    
    90   46  112 1    
    91   46  113 1    
    92   46  114 1    
    93   47   48 2    
    94   47   49 am   BACKBONE|DICT|INTERRES
    95   49   50 1    
    96   49  115 1    
    97   50   51 1    
    98   50   52 1    
    99   50  116 1    
   100   51  117 1    
   101   51  118 1    
   102   51  119 1    
   103   52   53 2    
   104   52   54 am   BACKBONE|DICT|INTERRES
   105   54   55 1    
   106   54  120 1    
   107   55   56 1    
   108   55   57 1    
   109   55  121 1    
   110   56  122 1    
   111   56  123 1    
   112   56  124 1    
   113   57   58 2    
   114   57   59 am   BACKBONE|DICT|INTERRES
   115   59   60 1    
   116   59  125 1    
   117   60   61 1    
   118   60   62 1    
   119   60  126 1    
   120   61  127 1    
   121   61  128 1    
   122   61  129 1    
   123   62   63 2    
   124   62   64 am   BACKBONE|DICT|INTERRES
   125   64   65 1    
   126   64  130 1    
   127   65   66 1    
   128   65   69 1    
   129   65  131 1    
   130   66   67 am   BACKBONE|DICT|INTERRES
   131   66   68 2    
   132   67  132 1    
   133   67  133 1    
   134   69   70 1    
   135   69  134 1    
   136   69  135 1    
   137   70   71 1    
   138   71  136 1    
   139   71  137 1    
@<TRIPOS>SUBSTRUCTURE
     1 UNK         1 GROUP             0       ****    0 ROOT    
