@<TRIPOS>MOLECULE
3R137
137   139    1
SMALL
USER_CHARGES


@<TRIPOS>ATOM
      1 CA         26.2217   -4.1733    2.6299 C.3       0 UNK        -0.2020 
      2 C          26.6502   -3.3582    1.4191 C.2       0 UNK         0.4855 
      3 O          27.0072   -2.1895    1.5637 O.2       0 UNK        -0.5197 
      4 N          26.6110   -3.9642    0.2248 N.am      1 UNK        -0.4892 
      5 CA         27.0124   -3.3448   -1.0482 C.3       1 UNK         0.0835 
      6 C6         27.4034   -4.4104   -2.1026 C.3       12 UNK        -0.0855 
      7 S7         28.8662   -5.3700   -1.5694 S.3       12 UNK        -0.2931 
      8 C8         29.9453   -5.3422   -3.0490 C.3       12 UNK         0.0378 
      9 C9         30.4066   -3.9626   -3.5274 C.ar      12 UNK        -0.0802 
     10 C10        30.8550   -3.8278   -4.8446 C.ar      12 UNK        -0.0944 
     11 C11        31.2474   -2.5831   -5.3467 C.ar      12 UNK        -0.0787 
     12 C12        31.1860   -1.4566   -4.5228 C.ar      12 UNK        -0.0862 
     13 C13        30.7670   -1.5768   -3.1957 C.ar      12 UNK        -0.0733 
     14 C14        30.4027   -2.8337   -2.7002 C.ar      12 UNK        -0.0832 
     15 C15        30.7229   -0.3595   -2.2836 C.3       12 UNK         0.0240 
     16 S16        29.0676   -0.1248   -1.5631 S.3       12 UNK        -0.2522 
     17 C17        28.2980    1.1840   -2.5709 C.3       12 UNK        -0.0967 
     18 CA         28.3585    1.0411   -4.1164 C.3       5 UNK         0.0660 
     19 N          27.7392   -0.1886   -4.6321 N.am      5 UNK        -0.4015 
     20 C          27.8182   -0.5779   -5.9181 C.2       4 UNK         0.4946 
     21 O          28.4872    0.0059   -6.7717 O.2       4 UNK        -0.5353 
     22 CA         26.9787   -1.7850   -6.3672 C.3       4 UNK         0.0277 
     23 CB         27.7656   -3.0917   -6.2107 C.3       4 UNK        -0.1981 
     24 N          25.6855   -1.8965   -5.6912 N.am      4 UNK        -0.4209 
     25 C          24.6826   -1.0152   -5.8200 C.2       3 UNK         0.4942 
     26 O          24.7589    0.0216   -6.4779 O.2       3 UNK        -0.5208 
     27 CA         23.4094   -1.3172   -5.0277 C.3       3 UNK         0.0250 
     28 CB         22.7062   -2.5921   -5.5326 C.3       3 UNK        -0.1990 
     29 N          23.7794   -1.4279   -3.6233 N.am      3 UNK        -0.4232 
     30 C          22.9796   -1.3638   -2.5601 C.2       2 UNK         0.4993 
     31 O          21.7510   -1.3014   -2.6332 O.2       2 UNK        -0.5286 
     32 CA         23.6844   -1.3356   -1.1849 C.3       2 UNK         0.0209 
     33 CB         22.6933   -1.4770   -0.0135 C.3       2 UNK        -0.1931 
     34 N          24.7629   -2.3194   -1.0014 N.am      2 UNK        -0.4546 
     35 C          25.9645   -2.3509   -1.6006 C.2       1 UNK         0.5154 
     36 O          26.2664   -1.6289   -2.5551 O.2       1 UNK        -0.5181 
     37 C          27.7217    2.2991   -4.7421 C.2       5 UNK         0.5014 
     38 O          28.4444    3.2269   -5.1057 O.2       5 UNK        -0.5248 
     39 N          26.3830    2.3108   -4.8359 N.am      6 UNK        -0.4434 
     40 CA         25.5923    3.4284   -5.3565 C.3       6 UNK         0.0363 
     41 CB         24.1137    3.2345   -4.9818 C.3       6 UNK        -0.1936 
     42 C          25.7559    3.6013   -6.8732 C.2       6 UNK         0.5081 
     43 O          25.8966    4.7296   -7.3454 O.2       6 UNK        -0.5248 
     44 N          25.7585    2.4788   -7.6036 N.am      7 UNK        -0.4718 
     45 CA         26.0148    2.4295   -9.0438 C.3       7 UNK         0.0273 
     46 CB         25.5625    1.0615   -9.5808 C.3       7 UNK        -0.1935 
     47 C          27.4898    2.6772   -9.4071 C.2       7 UNK         0.5018 
     48 O          27.7622    3.0772  -10.5395 O.2       7 UNK        -0.5186 
     49 N          28.4015    2.4000   -8.4600 N.am      8 UNK        -0.4240 
     50 CA         29.8618    2.3454   -8.6075 C.3       8 UNK         0.0235 
     51 CB         30.4437    3.7470   -8.8858 C.3       8 UNK        -0.2000 
     52 C          30.2757    1.2895   -9.6512 C.2       8 UNK         0.4941 
     53 O          31.1373    1.5545  -10.4922 O.2       8 UNK        -0.5273 
     54 N          29.6059    0.1279   -9.5936 N.am      9 UNK        -0.4262 
     55 CA         29.6384   -0.9550  -10.5802 C.3       9 UNK         0.0264 
     56 CB         28.5833   -2.0064  -10.1923 C.3       9 UNK        -0.1955 
     57 C          31.0368   -1.5766  -10.7081 C.2       9 UNK         0.5031 
     58 O          31.3921   -2.4363   -9.9036 O.2       9 UNK        -0.5390 
     59 N          31.8304   -1.0713  -11.6624 N.am      10 UNK        -0.4204 
     60 CA         33.2603   -1.3287  -11.9023 C.3       10 UNK         0.0237 
     61 CB         33.5445   -2.8224  -12.1587 C.3       10 UNK        -0.1985 
     62 C          34.1964   -0.7579  -10.8170 C.2       10 UNK         0.4970 
     63 O          35.3186   -0.3708  -11.1454 O.2       10 UNK        -0.4914 
     64 N          33.7284   -0.6943   -9.5652 N.am      11 UNK        -0.4285 
     65 CA         34.4240   -0.1081   -8.4106 C.3       11 UNK         0.1007 
     66 C          34.6316    1.4319   -8.4934 C.2       11 UNK         0.5703 
     67 N          33.8743    2.1663   -9.3008 N.am      11 UNK        -0.7361 
     68 O          35.5042    1.9679   -7.8147 O.2       11 UNK        -0.4986 
     69 C69        33.7451   -0.4933   -7.0684 C.3       12 UNK        -0.0947 
     70 S70        33.5346   -2.2976   -6.8758 S.3       12 UNK        -0.2240 
     71 C71        31.7226   -2.4608   -6.7848 C.3       12 UNK         0.0194 
     72 H72        25.3733   -3.6977    3.1215 H         1 UNK         0.0906 
     73 H73        25.9314   -5.1880    2.3580 H         1 UNK         0.0906 
     74 H74        27.0396   -4.2362    3.3474 H         1 UNK         0.0906 
     75 H75        26.3338   -4.9347    0.1682 H         1 UNK         0.3140 
     76 H76        27.8977   -2.7387   -0.8497 H         1 UNK         0.1085 
     77 H77        27.6241   -3.9369   -3.0585 H         1 UNK         0.0836 
     78 H78        26.5761   -5.0976   -2.2883 H         1 UNK         0.0836 
     79 H79        29.4161   -5.8483   -3.8582 H         1 UNK         0.0731 
     80 H80        30.8302   -5.9438   -2.8377 H         1 UNK         0.0731 
     81 H81        30.8865   -4.6962   -5.4887 H         1 UNK         0.1312 
     82 H82        31.4768   -0.4918   -4.9140 H         1 UNK         0.1406 
     83 H83        30.0977   -2.9184   -1.6676 H         1 UNK         0.1631 
     84 H84        31.0429    0.5467   -2.7993 H         1 UNK         0.0717 
     85 H85        31.4341   -0.5130   -1.4711 H         1 UNK         0.0717 
     86 H86        27.2590    1.2548   -2.2421 H         1 UNK         0.0934 
     87 H87        28.7666    2.1225   -2.2661 H         1 UNK         0.0934 
     88 H88        29.4052    1.0306   -4.4239 H         1 UNK         0.0739 
     89 H89        27.2143   -0.7469   -3.9639 H         1 UNK         0.3093 
     90 H90        26.7718   -1.6507   -7.4312 H         1 UNK         0.0818 
     91 H91        27.1985   -3.9491   -6.5729 H         1 UNK         0.0819 
     92 H92        28.6930   -3.0544   -6.7828 H         1 UNK         0.0819 
     93 H93        28.0334   -3.2746   -5.1720 H         1 UNK         0.0819 
     94 H94        25.5402   -2.7184   -5.1236 H         1 UNK         0.3041 
     95 H95        22.7318   -0.4687   -5.1444 H         1 UNK         0.0784 
     96 H96        22.5021   -2.5267   -6.6022 H         1 UNK         0.0793 
     97 H97        23.3084   -3.4858   -5.3666 H         1 UNK         0.0793 
     98 H98        21.7493   -2.7406   -5.0321 H         1 UNK         0.0793 
     99 H99        24.7792   -1.4557   -3.4234 H         1 UNK         0.3024 
    100 H100       24.1390   -0.3453   -1.1071 H         1 UNK         0.1171 
    101 H101       23.1960   -1.3710    0.9482 H         1 UNK         0.0786 
    102 H102       21.9207   -0.7077   -0.0546 H         1 UNK         0.0786 
    103 H103       22.1916   -2.4454   -0.0267 H         1 UNK         0.0786 
    104 H104       24.6211   -2.9864   -0.2570 H         1 UNK         0.2977 
    105 H105       25.8712    1.4884   -4.5530 H         1 UNK         0.3127 
    106 H106       25.9462    4.3444   -4.8781 H         1 UNK         0.0770 
    107 H107       23.6983    2.3251   -5.4176 H         1 UNK         0.0814 
    108 H108       23.5103    4.0702   -5.3390 H         1 UNK         0.0814 
    109 H109       23.9813    3.1800   -3.9011 H         1 UNK         0.0814 
    110 H110       25.5567    1.5935   -7.1426 H         1 UNK         0.2983 
    111 H111       25.4199    3.2065   -9.5290 H         1 UNK         0.0947 
    112 H112       26.1123    0.2447   -9.1118 H         1 UNK         0.0806 
    113 H113       25.7226    0.9892  -10.6575 H         1 UNK         0.0806 
    114 H114       24.5006    0.8956   -9.3981 H         1 UNK         0.0806 
    115 H115       28.0547    2.0346   -7.5817 H         1 UNK         0.3000 
    116 H116       30.2570    2.0053   -7.6489 H         1 UNK         0.0850 
    117 H117       30.1122    4.4672   -8.1377 H         1 UNK         0.0810 
    118 H118       30.1508    4.1220   -9.8668 H         1 UNK         0.0810 
    119 H119       31.5330    3.7296   -8.8572 H         1 UNK         0.0810 
    120 H120       28.9938   -0.0049   -8.7953 H         1 UNK         0.3040 
    121 H121       29.3554   -0.5363  -11.5481 H         1 UNK         0.0766 
    122 H122       28.5844   -2.8385  -10.8976 H         1 UNK         0.0812 
    123 H123       27.5792   -1.5824  -10.1938 H         1 UNK         0.0812 
    124 H124       28.7715   -2.4202   -9.2010 H         1 UNK         0.0812 
    125 H125       31.4524   -0.2987  -12.1956 H         1 UNK         0.3205 
    126 H126       33.4984   -0.7912  -12.8215 H         1 UNK         0.0754 
    127 H127       34.5793   -2.9709  -12.4702 H         1 UNK         0.0769 
    128 H128       32.9076   -3.2178  -12.9498 H         1 UNK         0.0769 
    129 H129       33.3886   -3.4291  -11.2662 H         1 UNK         0.0769 
    130 H130       32.8273   -1.1196   -9.3815 H         1 UNK         0.2981 
    131 H131       35.4250   -0.5434   -8.4024 H         1 UNK         0.0541 
    132 H132       34.0361    3.1590   -9.3503 H         1 UNK         0.3459 
    133 H133       33.1242    1.7521   -9.8405 H         1 UNK         0.3459 
    134 H134       34.3459   -0.1444   -6.2266 H         1 UNK         0.0612 
    135 H135       32.7800    0.0073   -6.9763 H         1 UNK         0.0612 
    136 H136       31.4325   -3.3473   -7.3506 H         1 UNK         0.0624 
    137 H137       31.2253   -1.6214   -7.2731 H         1 UNK         0.0624 
@<TRIPOS>BOND
     1    1    2 1    
     2    1   72 1    
     3    1   73 1    
     4    1   74 1    
     5    2    3 2    
     6    2    4 am   BACKBONE|DICT|INTERRES
     7    4    5 1    
     8    4   75 1    
     9    5    6 1    
    10    5   35 1    
    11    5   76 1    
    12    6    7 1    
    13    6   77 1    
    14    6   78 1    
    15    7    8 1    
    16    8    9 1    
    17    8   79 1    
    18    8   80 1    
    19    9   10 ar   
    20    9   14 ar   
    21   10   11 ar   
    22   10   81 1    
    23   11   12 ar   
    24   11   71 1    
    25   12   13 ar   
    26   12   82 1    
    27   13   14 ar   
    28   13   15 1    
    29   14   83 1    
    30   15   16 1    
    31   15   84 1    
    32   15   85 1    
    33   16   17 1    
    34   17   18 1    
    35   17   86 1    
    36   17   87 1    
    37   18   19 1    
    38   18   37 1    
    39   18   88 1    
    40   19   20 am   BACKBONE|DICT|INTERRES
    41   19   89 1    
    42   20   21 2    
    43   20   22 1    
    44   22   23 1    
    45   22   24 1    
    46   22   90 1    
    47   23   91 1    
    48   23   92 1    
    49   23   93 1    
    50   24   25 am   BACKBONE|DICT|INTERRES
    51   24   94 1    
    52   25   26 2    
    53   25   27 1    
    54   27   28 1    
    55   27   29 1    
    56   27   95 1    
    57   28   96 1    
    58   28   97 1    
    59   28   98 1    
    60   29   30 am   BACKBONE|DICT|INTERRES
    61   29   99 1    
    62   30   31 2    
    63   30   32 1    
    64   32   33 1    
    65   32   34 1    
    66   32  100 1    
    67   33  101 1    
    68   33  102 1    
    69   33  103 1    
    70   34   35 am   BACKBONE|DICT|INTERRES
    71   34  104 1    
    72   35   36 2    
    73   37   38 2    
    74   37   39 am   BACKBONE|DICT|INTERRES
    75   39   40 1    
    76   39  105 1    
    77   40   41 1    
    78   40   42 1    
    79   40  106 1    
    80   41  107 1    
    81   41  108 1    
    82   41  109 1    
    83   42   43 2    
    84   42   44 am   BACKBONE|DICT|INTERRES
    85   44   45 1    
    86   44  110 1    
    87   45   46 1    
    88   45   47 1    
    89   45  111 1    
    90   46  112 1    
    91   46  113 1    
    92   46  114 1    
    93   47   48 2    
    94   47   49 am   BACKBONE|DICT|INTERRES
    95   49   50 1    
    96   49  115 1    
    97   50   51 1    
    98   50   52 1    
    99   50  116 1    
   100   51  117 1    
   101   51  118 1    
   102   51  119 1    
   103   52   53 2    
   104   52   54 am   BACKBONE|DICT|INTERRES
   105   54   55 1    
   106   54  120 1    
   107   55   56 1    
   108   55   57 1    
   109   55  121 1    
   110   56  122 1    
   111   56  123 1    
   112   56  124 1    
   113   57   58 2    
   114   57   59 am   BACKBONE|DICT|INTERRES
   115   59   60 1    
   116   59  125 1    
   117   60   61 1    
   118   60   62 1    
   119   60  126 1    
   120   61  127 1    
   121   61  128 1    
   122   61  129 1    
   123   62   63 2    
   124   62   64 am   BACKBONE|DICT|INTERRES
   125   64   65 1    
   126   64  130 1    
   127   65   66 1    
   128   65   69 1    
   129   65  131 1    
   130   66   67 am   BACKBONE|DICT|INTERRES
   131   66   68 2    
   132   67  132 1    
   133   67  133 1    
   134   69   70 1    
   135   69  134 1    
   136   69  135 1    
   137   70   71 1    
   138   71  136 1    
   139   71  137 1    
@<TRIPOS>SUBSTRUCTURE
     1 UNK         1 GROUP             0       ****    0 ROOT    
