@<TRIPOS>MOLECULE
3R137
137   139    1
SMALL
USER_CHARGES


@<TRIPOS>ATOM
      1 CA         24.9715   -6.3083   -3.9223 C.3       0 UNK        -0.2020 
      2 C          25.3794   -5.2883   -2.8709 C.2       0 UNK         0.4855 
      3 O          24.5143   -4.6559   -2.2645 O.2       0 UNK        -0.5197 
      4 N          26.6898   -5.1139   -2.6512 N.am      1 UNK        -0.4892 
      5 CA         27.2516   -4.1335   -1.7158 C.3       1 UNK         0.0835 
      6 C6         28.7740   -4.3354   -1.5297 C.3       12 UNK        -0.0855 
      7 S7         29.4017   -3.4666   -0.0518 S.3       12 UNK        -0.2931 
      8 C8         31.2004   -3.4789   -0.3453 C.3       12 UNK         0.0378 
      9 C9         31.6036   -2.7301   -1.6105 C.ar      12 UNK        -0.0802 
     10 C10        32.3172   -3.3911   -2.6158 C.ar      12 UNK        -0.0944 
     11 C11        32.7100   -2.7125   -3.7726 C.ar      12 UNK        -0.0787 
     12 C12        32.3813   -1.3611   -3.9175 C.ar      12 UNK        -0.0862 
     13 C13        31.6577   -0.6891   -2.9281 C.ar      12 UNK        -0.0733 
     14 C14        31.2779   -1.3786   -1.7723 C.ar      12 UNK        -0.0832 
     15 C15        31.3136    0.7866   -3.0944 C.3       12 UNK         0.0240 
     16 S16        30.4675    1.1465   -4.6689 S.3       12 UNK        -0.2522 
     17 C17        28.8133    0.4408   -4.3700 C.3       12 UNK        -0.0967 
     18 CA         27.9762    0.3537   -5.6722 C.3       5 UNK         0.0660 
     19 N          27.0501   -0.7844   -5.6534 N.am      5 UNK        -0.4015 
     20 C          26.3611   -1.2375   -6.7121 C.2       4 UNK         0.4946 
     21 O          26.3904   -0.7118   -7.8236 O.2       4 UNK        -0.5353 
     22 CA         25.4709   -2.4666   -6.4848 C.3       4 UNK         0.0277 
     23 CB         26.3101   -3.7549   -6.4430 C.3       4 UNK        -0.1981 
     24 N          24.6969   -2.3252   -5.2517 N.am      4 UNK        -0.4209 
     25 C          23.5619   -1.6166   -5.1586 C.2       3 UNK         0.4942 
     26 O          22.9822   -1.1208   -6.1249 O.2       3 UNK        -0.5208 
     27 CA         22.9850   -1.3955   -3.7492 C.3       3 UNK         0.0250 
     28 CB         21.9601   -2.4874   -3.4042 C.3       3 UNK        -0.1990 
     29 N          24.0166   -1.3355   -2.7091 N.am      3 UNK        -0.4232 
     30 C          24.9164   -0.3456   -2.6003 C.2       2 UNK         0.4993 
     31 O          24.9502    0.6296   -3.3492 O.2       2 UNK        -0.5286 
     32 CA         25.9961   -0.4863   -1.5127 C.3       2 UNK         0.0209 
     33 CB         25.5272    0.1625   -0.2012 C.3       2 UNK        -0.1931 
     34 N          26.4071   -1.8703   -1.2548 N.am      2 UNK        -0.4546 
     35 C          26.9174   -2.6998   -2.1750 C.2       1 UNK         0.5154 
     36 O          27.0971   -2.3826   -3.3536 O.2       1 UNK        -0.5181 
     37 C          27.3080    1.6969   -6.0427 C.2       5 UNK         0.5014 
     38 O          27.9845    2.5773   -6.5726 O.2       5 UNK        -0.5248 
     39 N          25.9911    1.8179   -5.8175 N.am      6 UNK        -0.4434 
     40 CA         25.1481    2.9237   -6.2798 C.3       6 UNK         0.0363 
     41 CB         23.7122    2.7079   -5.7759 C.3       6 UNK        -0.1936 
     42 C          25.1509    3.1298   -7.8086 C.2       6 UNK         0.5081 
     43 O          24.9541    4.2606   -8.2568 O.2       6 UNK        -0.5248 
     44 N          25.4015    2.0688   -8.5915 N.am      7 UNK        -0.4718 
     45 CA         25.5670    2.1296  -10.0464 C.3       7 UNK         0.0273 
     46 CB         25.2115    0.7609  -10.6557 C.3       7 UNK        -0.1935 
     47 C          26.9927    2.5902  -10.4073 C.2       7 UNK         0.5018 
     48 O          27.7777    1.8105  -10.9499 O.2       7 UNK        -0.5186 
     49 N          27.3020    3.8489  -10.0663 N.am      8 UNK        -0.4240 
     50 CA         28.5861    4.5518  -10.1897 C.3       8 UNK         0.0235 
     51 CB         29.0781    4.6215  -11.6503 C.3       8 UNK        -0.2000 
     52 C          29.6692    4.0102   -9.2403 C.2       8 UNK         0.4941 
     53 O          30.1431    4.7629   -8.3881 O.2       8 UNK        -0.5273 
     54 N          30.0310    2.7322   -9.3948 N.am      9 UNK        -0.4262 
     55 CA         30.9535    1.9845   -8.5444 C.3       9 UNK         0.0264 
     56 CB         32.4029    2.4791   -8.7201 C.3       9 UNK        -0.1955 
     57 C          30.8490    0.5009   -8.9108 C.2       9 UNK         0.5031 
     58 O          30.7618    0.1786  -10.0980 O.2       9 UNK        -0.5390 
     59 N          30.8917   -0.3760   -7.9001 N.am      10 UNK        -0.4204 
     60 CA         30.8505   -1.8325   -8.0809 C.3       10 UNK         0.0237 
     61 CB         30.1915   -2.4870   -6.8539 C.3       10 UNK        -0.1985 
     62 C          32.2331   -2.4526   -8.3539 C.2       10 UNK         0.4970 
     63 O          32.2928   -3.5831   -8.8387 O.2       10 UNK        -0.4914 
     64 N          33.3099   -1.7286   -8.0318 N.am      11 UNK        -0.4285 
     65 CA         34.7065   -2.1510   -8.1862 C.3       11 UNK         0.1007 
     66 C          35.6490   -0.9215   -8.2757 C.2       11 UNK         0.5703 
     67 N          36.8985   -1.1228   -8.6718 N.am      11 UNK        -0.7361 
     68 O          35.2615    0.2111   -7.9908 O.2       11 UNK        -0.4986 
     69 C69        35.1479   -3.1907   -7.1126 C.3       12 UNK        -0.0947 
     70 S70        34.9777   -2.6041   -5.3898 S.3       12 UNK        -0.2240 
     71 C71        33.4447   -3.4498   -4.8847 C.3       12 UNK         0.0194 
     72 H72        24.2799   -5.8572   -4.6334 H         1 UNK         0.0906 
     73 H73        25.8291   -6.6878   -4.4773 H         1 UNK         0.0906 
     74 H74        24.4698   -7.1521   -3.4496 H         1 UNK         0.0906 
     75 H75        27.3600   -5.6393   -3.1943 H         1 UNK         0.3140 
     76 H76        26.7649   -4.3108   -0.7538 H         1 UNK         0.1085 
     77 H77        29.0002   -5.3954   -1.4024 H         1 UNK         0.0836 
     78 H78        29.3174   -4.0135   -2.4204 H         1 UNK         0.0836 
     79 H79        31.5425   -4.5146   -0.3783 H         1 UNK         0.0731 
     80 H80        31.6991   -3.0193    0.5090 H         1 UNK         0.0731 
     81 H81        32.5644   -4.4375   -2.4994 H         1 UNK         0.1312 
     82 H82        32.6832   -0.8315   -4.8104 H         1 UNK         0.1406 
     83 H83        30.7264   -0.8680   -0.9943 H         1 UNK         0.1631 
     84 H84        32.2380    1.3641   -3.0564 H         1 UNK         0.0717 
     85 H85        30.6942    1.1422   -2.2695 H         1 UNK         0.0717 
     86 H86        28.9647   -0.5558   -3.9519 H         1 UNK         0.0934 
     87 H87        28.2995    1.0182   -3.5995 H         1 UNK         0.0934 
     88 H88        28.6565    0.1374   -6.4953 H         1 UNK         0.0739 
     89 H89        26.9984   -1.3100   -4.7818 H         1 UNK         0.3093 
     90 H90        24.7848   -2.5432   -7.3314 H         1 UNK         0.0818 
     91 H91        27.0044   -3.7699   -5.6026 H         1 UNK         0.0819 
     92 H92        25.6743   -4.6365   -6.3699 H         1 UNK         0.0819 
     93 H93        26.9019   -3.8613   -7.3533 H         1 UNK         0.0819 
     94 H94        25.1306   -2.6578   -4.4003 H         1 UNK         0.3041 
     95 H95        22.4655   -0.4345   -3.7569 H         1 UNK         0.0784 
     96 H96        21.1502   -2.5042   -4.1349 H         1 UNK         0.0793 
     97 H97        22.4106   -3.4802   -3.3979 H         1 UNK         0.0793 
     98 H98        21.5094   -2.3160   -2.4265 H         1 UNK         0.0793 
     99 H99        24.0784   -2.1236   -2.0780 H         1 UNK         0.3024 
    100 H100       26.8771    0.0544   -1.8636 H         1 UNK         0.1171 
    101 H101       26.3200    0.1635    0.5472 H         1 UNK         0.0786 
    102 H102       25.2362    1.2017   -0.3625 H         1 UNK         0.0786 
    103 H103       24.6654   -0.3555    0.2213 H         1 UNK         0.0786 
    104 H104       26.2957   -2.2048   -0.3081 H         1 UNK         0.2977 
    105 H105       25.5304    1.0993   -5.2689 H         1 UNK         0.3127 
    106 H106       25.5368    3.8392   -5.8294 H         1 UNK         0.0770 
    107 H107       23.2899    1.7751   -6.1521 H         1 UNK         0.0814 
    108 H108       23.0571    3.5181   -6.0993 H         1 UNK         0.0814 
    109 H109       23.6736    2.6781   -4.6869 H         1 UNK         0.0814 
    110 H110       25.6203    1.1769   -8.1572 H         1 UNK         0.2983 
    111 H111       24.8695    2.8624  -10.4587 H         1 UNK         0.0947 
    112 H112       25.2707    0.7937  -11.7442 H         1 UNK         0.0806 
    113 H113       24.1969    0.4606  -10.3941 H         1 UNK         0.0806 
    114 H114       25.8901   -0.0230  -10.3184 H         1 UNK         0.0806 
    115 H115       26.5830    4.3568   -9.5605 H         1 UNK         0.3000 
    116 H116       28.3830    5.5766   -9.8741 H         1 UNK         0.0850 
    117 H117       29.9809    5.2291  -11.7243 H         1 UNK         0.0810 
    118 H118       28.3285    5.0753  -12.2985 H         1 UNK         0.0810 
    119 H119       29.3191    3.6386  -12.0554 H         1 UNK         0.0810 
    120 H120       29.5465    2.1775  -10.0983 H         1 UNK         0.3040 
    121 H121       30.6442    2.1233   -7.5069 H         1 UNK         0.0766 
    122 H122       32.5146    3.5219   -8.4245 H         1 UNK         0.0812 
    123 H123       32.7359    2.3867   -9.7546 H         1 UNK         0.0812 
    124 H124       33.0899    1.8998   -8.1026 H         1 UNK         0.0812 
    125 H125       30.9667   -0.0311   -6.9524 H         1 UNK         0.3205 
    126 H126       30.2278   -2.0669   -8.9473 H         1 UNK         0.0754 
    127 H127       30.2675   -3.5746   -6.8938 H         1 UNK         0.0769 
    128 H128       29.1310   -2.2507   -6.8092 H         1 UNK         0.0769 
    129 H129       30.6447   -2.1618   -5.9190 H         1 UNK         0.0769 
    130 H130       33.2010   -0.7862   -7.6855 H         1 UNK         0.2981 
    131 H131       34.7786   -2.6333   -9.1630 H         1 UNK         0.0541 
    132 H132       37.2304   -2.0447   -8.9084 H         1 UNK         0.3459 
    133 H133       37.5235   -0.3344   -8.7333 H         1 UNK         0.3459 
    134 H134       36.1885   -3.4791   -7.2679 H         1 UNK         0.0612 
    135 H135       34.5781   -4.1127   -7.2354 H         1 UNK         0.0612 
    136 H136       33.6954   -4.4675   -4.5820 H         1 UNK         0.0624 
    137 H137       32.7704   -3.5406   -5.7347 H         1 UNK         0.0624 
@<TRIPOS>BOND
     1    1    2 1    
     2    1   72 1    
     3    1   73 1    
     4    1   74 1    
     5    2    3 2    
     6    2    4 am   BACKBONE|DICT|INTERRES
     7    4    5 1    
     8    4   75 1    
     9    5    6 1    
    10    5   35 1    
    11    5   76 1    
    12    6    7 1    
    13    6   77 1    
    14    6   78 1    
    15    7    8 1    
    16    8    9 1    
    17    8   79 1    
    18    8   80 1    
    19    9   10 ar   
    20    9   14 ar   
    21   10   11 ar   
    22   10   81 1    
    23   11   12 ar   
    24   11   71 1    
    25   12   13 ar   
    26   12   82 1    
    27   13   14 ar   
    28   13   15 1    
    29   14   83 1    
    30   15   16 1    
    31   15   84 1    
    32   15   85 1    
    33   16   17 1    
    34   17   18 1    
    35   17   86 1    
    36   17   87 1    
    37   18   19 1    
    38   18   37 1    
    39   18   88 1    
    40   19   20 am   BACKBONE|DICT|INTERRES
    41   19   89 1    
    42   20   21 2    
    43   20   22 1    
    44   22   23 1    
    45   22   24 1    
    46   22   90 1    
    47   23   91 1    
    48   23   92 1    
    49   23   93 1    
    50   24   25 am   BACKBONE|DICT|INTERRES
    51   24   94 1    
    52   25   26 2    
    53   25   27 1    
    54   27   28 1    
    55   27   29 1    
    56   27   95 1    
    57   28   96 1    
    58   28   97 1    
    59   28   98 1    
    60   29   30 am   BACKBONE|DICT|INTERRES
    61   29   99 1    
    62   30   31 2    
    63   30   32 1    
    64   32   33 1    
    65   32   34 1    
    66   32  100 1    
    67   33  101 1    
    68   33  102 1    
    69   33  103 1    
    70   34   35 am   BACKBONE|DICT|INTERRES
    71   34  104 1    
    72   35   36 2    
    73   37   38 2    
    74   37   39 am   BACKBONE|DICT|INTERRES
    75   39   40 1    
    76   39  105 1    
    77   40   41 1    
    78   40   42 1    
    79   40  106 1    
    80   41  107 1    
    81   41  108 1    
    82   41  109 1    
    83   42   43 2    
    84   42   44 am   BACKBONE|DICT|INTERRES
    85   44   45 1    
    86   44  110 1    
    87   45   46 1    
    88   45   47 1    
    89   45  111 1    
    90   46  112 1    
    91   46  113 1    
    92   46  114 1    
    93   47   48 2    
    94   47   49 am   BACKBONE|DICT|INTERRES
    95   49   50 1    
    96   49  115 1    
    97   50   51 1    
    98   50   52 1    
    99   50  116 1    
   100   51  117 1    
   101   51  118 1    
   102   51  119 1    
   103   52   53 2    
   104   52   54 am   BACKBONE|DICT|INTERRES
   105   54   55 1    
   106   54  120 1    
   107   55   56 1    
   108   55   57 1    
   109   55  121 1    
   110   56  122 1    
   111   56  123 1    
   112   56  124 1    
   113   57   58 2    
   114   57   59 am   BACKBONE|DICT|INTERRES
   115   59   60 1    
   116   59  125 1    
   117   60   61 1    
   118   60   62 1    
   119   60  126 1    
   120   61  127 1    
   121   61  128 1    
   122   61  129 1    
   123   62   63 2    
   124   62   64 am   BACKBONE|DICT|INTERRES
   125   64   65 1    
   126   64  130 1    
   127   65   66 1    
   128   65   69 1    
   129   65  131 1    
   130   66   67 am   BACKBONE|DICT|INTERRES
   131   66   68 2    
   132   67  132 1    
   133   67  133 1    
   134   69   70 1    
   135   69  134 1    
   136   69  135 1    
   137   70   71 1    
   138   71  136 1    
   139   71  137 1    
@<TRIPOS>SUBSTRUCTURE
     1 UNK         1 GROUP             0       ****    0 ROOT    
