@<TRIPOS>MOLECULE
3R137
137   139    1
SMALL
USER_CHARGES


@<TRIPOS>ATOM
      1 CA         25.5741   -7.1349    0.3583 C.3       0 UNK        -0.2020 
      2 C          25.7079   -5.7110    0.8763 C.2       0 UNK         0.4855 
      3 O          24.8147   -5.2243    1.5698 O.2       0 UNK        -0.5197 
      4 N          26.8165   -5.0374    0.5437 N.am      1 UNK        -0.4892 
      5 CA         27.1142   -3.6516    0.9324 C.3       1 UNK         0.0835 
      6 C6         28.6356   -3.3503    0.8950 C.3       12 UNK        -0.0855 
      7 S7         29.4815   -3.8884   -0.6323 S.3       12 UNK        -0.2931 
      8 C8         29.5775   -2.3144   -1.5373 C.3       12 UNK         0.0378 
      9 C9         30.2459   -2.4684   -2.8959 C.ar      12 UNK        -0.0802 
     10 C10        31.3383   -1.6653   -3.2358 C.ar      12 UNK        -0.0944 
     11 C11        31.9113   -1.7400   -4.5083 C.ar      12 UNK        -0.0787 
     12 C12        31.3724   -2.6368   -5.4402 C.ar      12 UNK        -0.0862 
     13 C13        30.2615   -3.4276   -5.1309 C.ar      12 UNK        -0.0733 
     14 C14        29.7330   -3.3668   -3.8369 C.ar      12 UNK        -0.0832 
     15 C15        29.6772   -4.3103   -6.2382 C.3       12 UNK         0.0240 
     16 S16        27.9462   -4.8899   -6.0516 S.3       12 UNK        -0.2522 
     17 C17        26.9435   -3.4305   -5.5944 C.3       12 UNK        -0.0967 
     18 CA         26.6690   -2.3840   -6.7029 C.3       5 UNK         0.0660 
     19 N          25.4817   -1.5907   -6.3723 N.am      5 UNK        -0.4015 
     20 C          24.9026   -0.6728   -7.1595 C.2       4 UNK         0.4946 
     21 O          25.2509   -0.4335   -8.3149 O.2       4 UNK        -0.5353 
     22 CA         23.7673    0.1518   -6.5281 C.3       4 UNK         0.0277 
     23 CB         22.4219   -0.5752   -6.6812 C.3       4 UNK        -0.1981 
     24 N          24.0021    0.4618   -5.1133 N.am      4 UNK        -0.4209 
     25 C          25.0111    1.2208   -4.6582 C.2       3 UNK         0.4942 
     26 O          25.8292    1.7749   -5.3895 O.2       3 UNK        -0.5208 
     27 CA         25.1594    1.3564   -3.1333 C.3       3 UNK         0.0250 
     28 CB         24.3839    2.5815   -2.6240 C.3       3 UNK        -0.1990 
     29 N          24.7300    0.1614   -2.3997 N.am      3 UNK        -0.4232 
     30 C          25.3452   -1.0273   -2.4636 C.2       2 UNK         0.4993 
     31 O          26.3418   -1.2460   -3.1558 O.2       2 UNK        -0.5286 
     32 CA         24.6827   -2.1800   -1.6934 C.3       2 UNK         0.0209 
     33 CB         23.9010   -3.0874   -2.6576 C.3       2 UNK        -0.1931 
     34 N          25.6431   -2.9935   -0.9457 N.am      2 UNK        -0.4546 
     35 C          26.2766   -2.5984    0.1683 C.2       1 UNK         0.5154 
     36 O          26.1830   -1.4598    0.6303 O.2       1 UNK        -0.5181 
     37 C          27.8774   -1.4563   -6.9248 C.2       5 UNK         0.5014 
     38 O          28.5091   -1.5217   -7.9796 O.2       5 UNK        -0.5248 
     39 N          28.1354   -0.5784   -5.9432 N.am      6 UNK        -0.4434 
     40 CA         29.2121    0.4122   -5.9698 C.3       6 UNK         0.0363 
     41 CB         29.2764    1.1334   -4.6149 C.3       6 UNK        -0.1936 
     42 C          29.0824    1.4135   -7.1288 C.2       6 UNK         0.5081 
     43 O          30.0822    1.7198   -7.7770 O.2       6 UNK        -0.5248 
     44 N          27.8531    1.8733   -7.3993 N.am      7 UNK        -0.4718 
     45 CA         27.5208    2.7410   -8.5297 C.3       7 UNK         0.0273 
     46 CB         26.0693    3.2294   -8.4024 C.3       7 UNK        -0.1935 
     47 C          27.7531    2.0624   -9.8895 C.2       7 UNK         0.5018 
     48 O          28.3607    2.6767  -10.7665 O.2       7 UNK        -0.5186 
     49 N          27.2939    0.8100  -10.0357 N.am      8 UNK        -0.4240 
     50 CA         27.4675    0.0016  -11.2467 C.3       8 UNK         0.0235 
     51 CB         26.6087   -1.2698  -11.1529 C.3       8 UNK        -0.2000 
     52 C          28.9362   -0.3569  -11.5250 C.2       8 UNK         0.4941 
     53 O          29.3705   -0.2765  -12.6747 O.2       8 UNK        -0.5273 
     54 N          29.6755   -0.7297  -10.4722 N.am      9 UNK        -0.4262 
     55 CA         31.1029   -1.0544  -10.5319 C.3       9 UNK         0.0264 
     56 CB         31.4601   -1.9197   -9.3152 C.3       9 UNK        -0.1955 
     57 C          32.0227    0.1802  -10.6269 C.2       9 UNK         0.5031 
     58 O          33.1992    0.0130  -10.9519 O.2       9 UNK        -0.5390 
     59 N          31.4802    1.3780  -10.3582 N.am      10 UNK        -0.4204 
     60 CA         32.1401    2.6887  -10.3428 C.3       10 UNK         0.0237 
     61 CB         32.6446    3.0770  -11.7494 C.3       10 UNK        -0.1985 
     62 C          33.2269    2.7747   -9.2547 C.2       10 UNK         0.4970 
     63 O          34.3870    3.0690   -9.5513 O.2       10 UNK        -0.4914 
     64 N          32.8188    2.5084   -8.0120 N.am      11 UNK        -0.4285 
     65 CA         33.6633    2.4831   -6.8106 C.3       11 UNK         0.1007 
     66 C          32.9189    3.0553   -5.5719 C.2       11 UNK         0.5703 
     67 N          33.5249    3.0021   -4.3928 N.am      11 UNK        -0.7361 
     68 O          31.8136    3.5855   -5.6657 O.2       11 UNK        -0.4986 
     69 C69        34.3118    1.0850   -6.5856 C.3       12 UNK        -0.0947 
     70 S70        33.1022   -0.2789   -6.5884 S.3       12 UNK        -0.2240 
     71 C71        33.0937   -0.8313   -4.8513 C.3       12 UNK         0.0194 
     72 H72        26.4352   -7.4348   -0.2388 H         1 UNK         0.0906 
     73 H73        25.4817   -7.8302    1.1923 H         1 UNK         0.0906 
     74 H74        24.6828   -7.2264   -0.2620 H         1 UNK         0.0906 
     75 H75        27.5272   -5.4799   -0.0241 H         1 UNK         0.3140 
     76 H76        26.8061   -3.5435    1.9753 H         1 UNK         0.1085 
     77 H77        28.8341   -2.2933    1.0847 H         1 UNK         0.0836 
     78 H78        29.1150   -3.8785    1.7208 H         1 UNK         0.0836 
     79 H79        30.1113   -1.5857   -0.9252 H         1 UNK         0.0731 
     80 H80        28.5724   -1.9186   -1.6870 H         1 UNK         0.0731 
     81 H81        31.7335   -0.9645   -2.5130 H         1 UNK         0.1312 
     82 H82        31.8023   -2.7047   -6.4292 H         1 UNK         0.1406 
     83 H83        28.8996   -3.9953   -3.5581 H         1 UNK         0.1631 
     84 H84        30.3138   -5.1902   -6.3378 H         1 UNK         0.0717 
     85 H85        29.7466   -3.7852   -7.1915 H         1 UNK         0.0717 
     86 H86        25.9898   -3.8541   -5.2775 H         1 UNK         0.0934 
     87 H87        27.3355   -2.9566   -4.6993 H         1 UNK         0.0934 
     88 H88        26.4634   -2.9061   -7.6398 H         1 UNK         0.0739 
     89 H89        25.1452   -1.6746   -5.4249 H         1 UNK         0.3093 
     90 H90        23.7076    1.0979   -7.0701 H         1 UNK         0.0818 
     91 H91        21.5962    0.0373   -6.3184 H         1 UNK         0.0819 
     92 H92        22.2187   -0.7997   -7.7294 H         1 UNK         0.0819 
     93 H93        22.4048   -1.5201   -6.1367 H         1 UNK         0.0819 
     94 H94        23.3603    0.0651   -4.4429 H         1 UNK         0.3041 
     95 H95        26.2198    1.5127   -2.9226 H         1 UNK         0.0784 
     96 H96        24.7044    3.4873   -3.1410 H         1 UNK         0.0793 
     97 H97        23.3099    2.4780   -2.7839 H         1 UNK         0.0793 
     98 H98        24.5519    2.7430   -1.5589 H         1 UNK         0.0793 
     99 H99        23.9141    0.2618   -1.8125 H         1 UNK         0.3024 
    100 H100       23.9765   -1.7592   -0.9736 H         1 UNK         0.1171 
    101 H101       23.3538   -3.8598   -2.1166 H         1 UNK         0.0786 
    102 H102       23.1684   -2.5174   -3.2308 H         1 UNK         0.0786 
    103 H103       24.5606   -3.5837   -3.3694 H         1 UNK         0.0786 
    104 H104       25.7980   -3.9367   -1.2687 H         1 UNK         0.2977 
    105 H105       27.5569   -0.5961   -5.1129 H         1 UNK         0.3127 
    106 H106       30.1464   -0.1305   -6.1138 H         1 UNK         0.0770 
    107 H107       28.3859    1.7352   -4.4329 H         1 UNK         0.0814 
    108 H108       30.1362    1.8016   -4.5733 H         1 UNK         0.0814 
    109 H109       29.3769    0.4262   -3.7919 H         1 UNK         0.0814 
    110 H110       27.0932    1.6311   -6.7669 H         1 UNK         0.2983 
    111 H111       28.1779    3.6120   -8.4795 H         1 UNK         0.0947 
    112 H112       25.8106    3.9032   -9.2202 H         1 UNK         0.0806 
    113 H113       25.9153    3.7747   -7.4710 H         1 UNK         0.0806 
    114 H114       25.3610    2.4009   -8.4246 H         1 UNK         0.0806 
    115 H115       26.7721    0.3829   -9.2744 H         1 UNK         0.3000 
    116 H116       27.1074    0.5913  -12.0924 H         1 UNK         0.0850 
    117 H117       26.7213   -1.8863  -12.0457 H         1 UNK         0.0810 
    118 H118       25.5504   -1.0257  -11.0586 H         1 UNK         0.0810 
    119 H119       26.8867   -1.8818  -10.2938 H         1 UNK         0.0810 
    120 H120       29.2227   -0.8331   -9.5644 H         1 UNK         0.3040 
    121 H121       31.2828   -1.6507  -11.4289 H         1 UNK         0.0766 
    122 H122       31.1871   -1.4190   -8.3870 H         1 UNK         0.0812 
    123 H123       32.5289   -2.1340   -9.2757 H         1 UNK         0.0812 
    124 H124       30.9356   -2.8747   -9.3423 H         1 UNK         0.0812 
    125 H125       30.5218    1.3820  -10.0320 H         1 UNK         0.3205 
    126 H126       31.3692    3.4089  -10.0636 H         1 UNK         0.0754 
    127 H127       33.0358    4.0950  -11.7543 H         1 UNK         0.0769 
    128 H128       31.8391    3.0352  -12.4827 H         1 UNK         0.0769 
    129 H129       33.4451    2.4210  -12.0926 H         1 UNK         0.0769 
    130 H130       31.8371    2.2850   -7.8492 H         1 UNK         0.2981 
    131 H131       34.4757    3.1939   -6.9712 H         1 UNK         0.0541 
    132 H132       34.4441    2.6023   -4.2933 H         1 UNK         0.3459 
    133 H133       33.0569    3.3879   -3.5881 H         1 UNK         0.3459 
    134 H134       34.9087    1.0557   -5.6734 H         1 UNK         0.0612 
    135 H135       35.0154    0.8875   -7.3955 H         1 UNK         0.0612 
    136 H136       34.0244   -1.3584   -4.6392 H         1 UNK         0.0624 
    137 H137       33.0758    0.0524   -4.2118 H         1 UNK         0.0624 
@<TRIPOS>BOND
     1    1    2 1    
     2    1   72 1    
     3    1   73 1    
     4    1   74 1    
     5    2    3 2    
     6    2    4 am   BACKBONE|DICT|INTERRES
     7    4    5 1    
     8    4   75 1    
     9    5    6 1    
    10    5   35 1    
    11    5   76 1    
    12    6    7 1    
    13    6   77 1    
    14    6   78 1    
    15    7    8 1    
    16    8    9 1    
    17    8   79 1    
    18    8   80 1    
    19    9   10 ar   
    20    9   14 ar   
    21   10   11 ar   
    22   10   81 1    
    23   11   12 ar   
    24   11   71 1    
    25   12   13 ar   
    26   12   82 1    
    27   13   14 ar   
    28   13   15 1    
    29   14   83 1    
    30   15   16 1    
    31   15   84 1    
    32   15   85 1    
    33   16   17 1    
    34   17   18 1    
    35   17   86 1    
    36   17   87 1    
    37   18   19 1    
    38   18   37 1    
    39   18   88 1    
    40   19   20 am   BACKBONE|DICT|INTERRES
    41   19   89 1    
    42   20   21 2    
    43   20   22 1    
    44   22   23 1    
    45   22   24 1    
    46   22   90 1    
    47   23   91 1    
    48   23   92 1    
    49   23   93 1    
    50   24   25 am   BACKBONE|DICT|INTERRES
    51   24   94 1    
    52   25   26 2    
    53   25   27 1    
    54   27   28 1    
    55   27   29 1    
    56   27   95 1    
    57   28   96 1    
    58   28   97 1    
    59   28   98 1    
    60   29   30 am   BACKBONE|DICT|INTERRES
    61   29   99 1    
    62   30   31 2    
    63   30   32 1    
    64   32   33 1    
    65   32   34 1    
    66   32  100 1    
    67   33  101 1    
    68   33  102 1    
    69   33  103 1    
    70   34   35 am   BACKBONE|DICT|INTERRES
    71   34  104 1    
    72   35   36 2    
    73   37   38 2    
    74   37   39 am   BACKBONE|DICT|INTERRES
    75   39   40 1    
    76   39  105 1    
    77   40   41 1    
    78   40   42 1    
    79   40  106 1    
    80   41  107 1    
    81   41  108 1    
    82   41  109 1    
    83   42   43 2    
    84   42   44 am   BACKBONE|DICT|INTERRES
    85   44   45 1    
    86   44  110 1    
    87   45   46 1    
    88   45   47 1    
    89   45  111 1    
    90   46  112 1    
    91   46  113 1    
    92   46  114 1    
    93   47   48 2    
    94   47   49 am   BACKBONE|DICT|INTERRES
    95   49   50 1    
    96   49  115 1    
    97   50   51 1    
    98   50   52 1    
    99   50  116 1    
   100   51  117 1    
   101   51  118 1    
   102   51  119 1    
   103   52   53 2    
   104   52   54 am   BACKBONE|DICT|INTERRES
   105   54   55 1    
   106   54  120 1    
   107   55   56 1    
   108   55   57 1    
   109   55  121 1    
   110   56  122 1    
   111   56  123 1    
   112   56  124 1    
   113   57   58 2    
   114   57   59 am   BACKBONE|DICT|INTERRES
   115   59   60 1    
   116   59  125 1    
   117   60   61 1    
   118   60   62 1    
   119   60  126 1    
   120   61  127 1    
   121   61  128 1    
   122   61  129 1    
   123   62   63 2    
   124   62   64 am   BACKBONE|DICT|INTERRES
   125   64   65 1    
   126   64  130 1    
   127   65   66 1    
   128   65   69 1    
   129   65  131 1    
   130   66   67 am   BACKBONE|DICT|INTERRES
   131   66   68 2    
   132   67  132 1    
   133   67  133 1    
   134   69   70 1    
   135   69  134 1    
   136   69  135 1    
   137   70   71 1    
   138   71  136 1    
   139   71  137 1    
@<TRIPOS>SUBSTRUCTURE
     1 UNK         1 GROUP             0       ****    0 ROOT    
