@<TRIPOS>MOLECULE
3R137
137   139    1
SMALL
USER_CHARGES


@<TRIPOS>ATOM
      1 CA         29.6520   -5.9900   -2.4619 C.3       0 UNK        -0.2020 
      2 C          28.8273   -5.2832   -1.3972 C.2       0 UNK         0.4855 
      3 O          28.0994   -5.9360   -0.6493 O.2       0 UNK        -0.5197 
      4 N          28.9427   -3.9515   -1.3219 N.am      1 UNK        -0.4892 
      5 CA         28.2611   -3.0884   -0.3458 C.3       1 UNK         0.0835 
      6 C6         28.8529   -1.6551   -0.3152 C.3       12 UNK        -0.0855 
      7 S7         30.6588   -1.6154   -0.0289 S.3       12 UNK        -0.2931 
      8 C8         31.2773   -0.7582   -1.5151 C.3       12 UNK         0.0378 
      9 C9         31.5026   -1.7148   -2.6782 C.ar      12 UNK        -0.0802 
     10 C10        32.7901   -2.1560   -2.9886 C.ar      12 UNK        -0.0944 
     11 C11        33.0077   -3.0059   -4.0769 C.ar      12 UNK        -0.0787 
     12 C12        31.9169   -3.4521   -4.8287 C.ar      12 UNK        -0.0862 
     13 C13        30.6211   -3.0119   -4.5433 C.ar      12 UNK        -0.0733 
     14 C14        30.4299   -2.1344   -3.4661 C.ar      12 UNK        -0.0832 
     15 C15        29.4801   -3.5060   -5.4392 C.3       12 UNK         0.0240 
     16 S16        27.7993   -2.9650   -4.9745 S.3       12 UNK        -0.2522 
     17 C17        27.8980   -1.1686   -5.2920 C.3       12 UNK        -0.0967 
     18 CA         27.0189   -0.7085   -6.4722 C.3       5 UNK         0.0660 
     19 N          25.6071   -1.0578   -6.2903 N.am      5 UNK        -0.4015 
     20 C          24.6724   -0.9823   -7.2501 C.2       4 UNK         0.4946 
     21 O          24.9094   -0.5948   -8.3950 O.2       4 UNK        -0.5353 
     22 CA         23.2275   -1.3608   -6.8753 C.3       4 UNK         0.0277 
     23 CB         22.9177   -2.7940   -7.3362 C.3       4 UNK        -0.1981 
     24 N          22.9298   -1.2411   -5.4452 N.am      4 UNK        -0.4209 
     25 C          22.9595   -0.1014   -4.7381 C.2       3 UNK         0.4942 
     26 O          23.2107    1.0005   -5.2268 O.2       3 UNK        -0.5208 
     27 CA         22.7268   -0.2256   -3.2201 C.3       3 UNK         0.0250 
     28 CB         21.2349   -0.0628   -2.8883 C.3       3 UNK        -0.1990 
     29 N          23.2232   -1.4878   -2.6523 N.am      3 UNK        -0.4232 
     30 C          24.5085   -1.8685   -2.6717 C.2       2 UNK         0.4993 
     31 O          25.4081   -1.1880   -3.1681 O.2       2 UNK        -0.5286 
     32 CA         24.8258   -3.2651   -2.1179 C.3       2 UNK         0.0209 
     33 CB         24.5308   -4.3372   -3.1811 C.3       2 UNK        -0.1931 
     34 N          26.2362   -3.3590   -1.7385 N.am      2 UNK        -0.4546 
     35 C          26.7278   -3.0210   -0.5389 C.2       1 UNK         0.5154 
     36 O          26.0209   -2.6585    0.4035 O.2       1 UNK        -0.5181 
     37 C          27.2457    0.7945   -6.7323 C.2       5 UNK         0.5014 
     38 O          28.3205    1.1502   -7.2181 O.2       5 UNK        -0.5248 
     39 N          26.2505    1.6474   -6.4406 N.am      6 UNK        -0.4434 
     40 CA         26.2608    3.0748   -6.7670 C.3       6 UNK         0.0363 
     41 CB         25.0435    3.7580   -6.1259 C.3       6 UNK        -0.1936 
     42 C          26.2936    3.3406   -8.2826 C.2       6 UNK         0.5081 
     43 O          26.9290    4.3048   -8.7068 O.2       6 UNK        -0.5248 
     44 N          25.6615    2.4620   -9.0770 N.am      7 UNK        -0.4718 
     45 CA         25.7001    2.5041  -10.5433 C.3       7 UNK         0.0273 
     46 CB         24.5779    1.6212  -11.1116 C.3       7 UNK        -0.1935 
     47 C          27.0660    2.0764  -11.1095 C.2       7 UNK         0.5018 
     48 O          27.4613    2.5608  -12.1699 O.2       7 UNK        -0.5186 
     49 N          27.7689    1.2000  -10.3790 N.am      8 UNK        -0.4240 
     50 CA         29.1385    0.7669  -10.6672 C.3       8 UNK         0.0235 
     51 CB         29.3349   -0.6515  -10.1024 C.3       8 UNK        -0.2000 
     52 C          30.2020    1.7265  -10.0966 C.2       8 UNK         0.4941 
     53 O          31.3855    1.5266  -10.3697 O.2       8 UNK        -0.5273 
     54 N          29.7740    2.7167   -9.2960 N.am      9 UNK        -0.4262 
     55 CA         30.5790    3.6902   -8.5477 C.3       9 UNK         0.0264 
     56 CB         31.2938    4.6604   -9.5125 C.3       9 UNK        -0.1955 
     57 C          31.5368    3.0394   -7.5255 C.2       9 UNK         0.5031 
     58 O          32.6124    3.5875   -7.2774 O.2       9 UNK        -0.5390 
     59 N          31.1085    1.9025   -6.9507 N.am      10 UNK        -0.4204 
     60 CA         31.8377    0.9753   -6.0741 C.3       10 UNK         0.0237 
     61 CB         32.3200    1.6525   -4.7765 C.3       10 UNK        -0.1985 
     62 C          32.9876    0.2489   -6.8004 C.2       10 UNK         0.4970 
     63 O          33.9016    0.8833   -7.3277 O.2       10 UNK        -0.4914 
     64 N          32.9137   -1.0863   -6.7988 N.am      11 UNK        -0.4285 
     65 CA         33.8656   -2.0352   -7.4074 C.3       11 UNK         0.1007 
     66 C          33.9139   -2.0376   -8.9665 C.2       11 UNK         0.5703 
     67 N          33.1270   -1.2347   -9.6716 N.am      11 UNK        -0.7361 
     68 O          34.6577   -2.8192   -9.5548 O.2       11 UNK        -0.4986 
     69 C69        35.2969   -1.9826   -6.7925 C.3       12 UNK        -0.0947 
     70 S70        35.4226   -1.9858   -4.9678 S.3       12 UNK        -0.2240 
     71 C71        34.4266   -3.4204   -4.4410 C.3       12 UNK         0.0194 
     72 H72        29.0226   -6.2513   -3.3122 H         1 UNK         0.0906 
     73 H73        30.4715   -5.3666   -2.8185 H         1 UNK         0.0906 
     74 H74        30.0818   -6.9072   -2.0600 H         1 UNK         0.0906 
     75 H75        29.6002   -3.4819   -1.9291 H         1 UNK         0.3140 
     76 H76        28.4239   -3.5341    0.6382 H         1 UNK         0.1085 
     77 H77        28.6044   -1.1150   -1.2297 H         1 UNK         0.0836 
     78 H78        28.3916   -1.0820    0.4918 H         1 UNK         0.0836 
     79 H79        30.5917    0.0389   -1.8070 H         1 UNK         0.0731 
     80 H80        32.2144   -0.2616   -1.2581 H         1 UNK         0.0731 
     81 H81        33.6318   -1.8191   -2.3986 H         1 UNK         0.1312 
     82 H82        32.0775   -4.1314   -5.6549 H         1 UNK         0.1406 
     83 H83        29.4466   -1.7662   -3.2228 H         1 UNK         0.1631 
     84 H84        29.6719   -3.1954   -6.4674 H         1 UNK         0.0717 
     85 H85        29.4880   -4.5968   -5.4414 H         1 UNK         0.0717 
     86 H86        27.6187   -0.6416   -4.3781 H         1 UNK         0.0934 
     87 H87        28.9374   -0.8983   -5.4840 H         1 UNK         0.0934 
     88 H88        27.3646   -1.2314   -7.3665 H         1 UNK         0.0739 
     89 H89        25.3455   -1.3467   -5.3550 H         1 UNK         0.3093 
     90 H90        22.5657   -0.6760   -7.4098 H         1 UNK         0.0818 
     91 H91        21.8723   -3.0506   -7.1636 H         1 UNK         0.0819 
     92 H92        23.1041   -2.9087   -8.4051 H         1 UNK         0.0819 
     93 H93        23.5357   -3.5283   -6.8176 H         1 UNK         0.0819 
     94 H94        22.7092   -2.0957   -4.9556 H         1 UNK         0.3041 
     95 H95        23.2744    0.5893   -2.7415 H         1 UNK         0.0784 
     96 H96        20.8489    0.8788   -3.2819 H         1 UNK         0.0793 
     97 H97        20.6338   -0.8658   -3.3170 H         1 UNK         0.0793 
     98 H98        21.0662   -0.0539   -1.8113 H         1 UNK         0.0793 
     99 H99        22.5351   -2.0994   -2.2357 H         1 UNK         0.3024 
    100 H100       24.1985   -3.4501   -1.2426 H         1 UNK         0.1171 
    101 H101       24.7745   -5.3345   -2.8140 H         1 UNK         0.0786 
    102 H102       23.4745   -4.3445   -3.4525 H         1 UNK         0.0786 
    103 H103       25.1014   -4.1705   -4.0957 H         1 UNK         0.0786 
    104 H104       26.8890   -3.5848   -2.4756 H         1 UNK         0.2977 
    105 H105       25.3984    1.2832   -6.0318 H         1 UNK         0.3127 
    106 H106       27.1653    3.5090   -6.3353 H         1 UNK         0.0770 
    107 H107       24.1053    3.3595   -6.5145 H         1 UNK         0.0814 
    108 H108       25.0493    4.8309   -6.3231 H         1 UNK         0.0814 
    109 H109       25.0386    3.6275   -5.0435 H         1 UNK         0.0814 
    110 H110       25.1871    1.6712   -8.6574 H         1 UNK         0.2983 
    111 H111       25.5193    3.5333  -10.8623 H         1 UNK         0.0947 
    112 H112       24.5556    1.6736  -12.2010 H         1 UNK         0.0806 
    113 H113       23.5997    1.9413  -10.7524 H         1 UNK         0.0806 
    114 H114       24.7092    0.5733  -10.8394 H         1 UNK         0.0806 
    115 H115       27.3606    0.8638   -9.5184 H         1 UNK         0.3000 
    116 H116       29.2802    0.7270  -11.7494 H         1 UNK         0.0850 
    117 H117       28.5810   -1.3401  -10.4843 H         1 UNK         0.0810 
    118 H118       29.2842   -0.6670   -9.0135 H         1 UNK         0.0810 
    119 H119       30.3080   -1.0525  -10.3876 H         1 UNK         0.0810 
    120 H120       28.7793    2.7672   -9.1219 H         1 UNK         0.3040 
    121 H121       29.8692    4.2752   -7.9607 H         1 UNK         0.0766 
    122 H122       30.5910    5.1136  -10.2116 H         1 UNK         0.0812 
    123 H123       32.0671    4.1556  -10.0924 H         1 UNK         0.0812 
    124 H124       31.7749    5.4728   -8.9667 H         1 UNK         0.0812 
    125 H125       30.1697    1.5976   -7.2030 H         1 UNK         0.3205 
    126 H126       31.1004    0.2266   -5.7810 H         1 UNK         0.0754 
    127 H127       33.0879    2.4025   -4.9676 H         1 UNK         0.0769 
    128 H128       32.7515    0.9168   -4.0962 H         1 UNK         0.0769 
    129 H129       31.4969    2.1376   -4.2521 H         1 UNK         0.0769 
    130 H130       32.1430   -1.5207   -6.3133 H         1 UNK         0.2981 
    131 H131       33.4605   -3.0174   -7.1719 H         1 UNK         0.0541 
    132 H132       32.5549   -0.5398   -9.2190 H         1 UNK         0.3459 
    133 H133       33.1743   -1.2641  -10.6772 H         1 UNK         0.3459 
    134 H134       35.8168   -1.0904   -7.1452 H         1 UNK         0.0612 
    135 H135       35.8868   -2.8279   -7.1513 H         1 UNK         0.0612 
    136 H136       34.8966   -3.8667   -3.5637 H         1 UNK         0.0624 
    137 H137       34.4364   -4.1870   -5.2171 H         1 UNK         0.0624 
@<TRIPOS>BOND
     1    1    2 1    
     2    1   72 1    
     3    1   73 1    
     4    1   74 1    
     5    2    3 2    
     6    2    4 am   BACKBONE|DICT|INTERRES
     7    4    5 1    
     8    4   75 1    
     9    5    6 1    
    10    5   35 1    
    11    5   76 1    
    12    6    7 1    
    13    6   77 1    
    14    6   78 1    
    15    7    8 1    
    16    8    9 1    
    17    8   79 1    
    18    8   80 1    
    19    9   10 ar   
    20    9   14 ar   
    21   10   11 ar   
    22   10   81 1    
    23   11   12 ar   
    24   11   71 1    
    25   12   13 ar   
    26   12   82 1    
    27   13   14 ar   
    28   13   15 1    
    29   14   83 1    
    30   15   16 1    
    31   15   84 1    
    32   15   85 1    
    33   16   17 1    
    34   17   18 1    
    35   17   86 1    
    36   17   87 1    
    37   18   19 1    
    38   18   37 1    
    39   18   88 1    
    40   19   20 am   BACKBONE|DICT|INTERRES
    41   19   89 1    
    42   20   21 2    
    43   20   22 1    
    44   22   23 1    
    45   22   24 1    
    46   22   90 1    
    47   23   91 1    
    48   23   92 1    
    49   23   93 1    
    50   24   25 am   BACKBONE|DICT|INTERRES
    51   24   94 1    
    52   25   26 2    
    53   25   27 1    
    54   27   28 1    
    55   27   29 1    
    56   27   95 1    
    57   28   96 1    
    58   28   97 1    
    59   28   98 1    
    60   29   30 am   BACKBONE|DICT|INTERRES
    61   29   99 1    
    62   30   31 2    
    63   30   32 1    
    64   32   33 1    
    65   32   34 1    
    66   32  100 1    
    67   33  101 1    
    68   33  102 1    
    69   33  103 1    
    70   34   35 am   BACKBONE|DICT|INTERRES
    71   34  104 1    
    72   35   36 2    
    73   37   38 2    
    74   37   39 am   BACKBONE|DICT|INTERRES
    75   39   40 1    
    76   39  105 1    
    77   40   41 1    
    78   40   42 1    
    79   40  106 1    
    80   41  107 1    
    81   41  108 1    
    82   41  109 1    
    83   42   43 2    
    84   42   44 am   BACKBONE|DICT|INTERRES
    85   44   45 1    
    86   44  110 1    
    87   45   46 1    
    88   45   47 1    
    89   45  111 1    
    90   46  112 1    
    91   46  113 1    
    92   46  114 1    
    93   47   48 2    
    94   47   49 am   BACKBONE|DICT|INTERRES
    95   49   50 1    
    96   49  115 1    
    97   50   51 1    
    98   50   52 1    
    99   50  116 1    
   100   51  117 1    
   101   51  118 1    
   102   51  119 1    
   103   52   53 2    
   104   52   54 am   BACKBONE|DICT|INTERRES
   105   54   55 1    
   106   54  120 1    
   107   55   56 1    
   108   55   57 1    
   109   55  121 1    
   110   56  122 1    
   111   56  123 1    
   112   56  124 1    
   113   57   58 2    
   114   57   59 am   BACKBONE|DICT|INTERRES
   115   59   60 1    
   116   59  125 1    
   117   60   61 1    
   118   60   62 1    
   119   60  126 1    
   120   61  127 1    
   121   61  128 1    
   122   61  129 1    
   123   62   63 2    
   124   62   64 am   BACKBONE|DICT|INTERRES
   125   64   65 1    
   126   64  130 1    
   127   65   66 1    
   128   65   69 1    
   129   65  131 1    
   130   66   67 am   BACKBONE|DICT|INTERRES
   131   66   68 2    
   132   67  132 1    
   133   67  133 1    
   134   69   70 1    
   135   69  134 1    
   136   69  135 1    
   137   70   71 1    
   138   71  136 1    
   139   71  137 1    
@<TRIPOS>SUBSTRUCTURE
     1 UNK         1 GROUP             0       ****    0 ROOT    
