@<TRIPOS>MOLECULE
3R137
137   139    1
SMALL
USER_CHARGES


@<TRIPOS>ATOM
      1 CA         30.9897   -4.8376   -5.1830 C.3       0 UNK        -0.2020 
      2 C          29.6198   -5.1878   -4.6253 C.2       0 UNK         0.4855 
      3 O          29.0732   -6.2419   -4.9505 O.2       0 UNK        -0.5197 
      4 N          29.0594   -4.3037   -3.7972 N.am      1 UNK        -0.4892 
      5 CA         27.7231   -4.4009   -3.2171 C.3       1 UNK         0.0835 
      6 C6         27.6360   -5.4086   -2.0298 C.3       12 UNK        -0.0855 
      7 S7         28.1702   -4.8342   -0.3767 S.3       12 UNK        -0.2931 
      8 C8         29.9804   -5.0870   -0.4163 C.3       12 UNK         0.0378 
      9 C9         30.7687   -3.9537   -1.0746 C.ar      12 UNK        -0.0802 
     10 C10        32.0012   -4.2369   -1.6749 C.ar      12 UNK        -0.0944 
     11 C11        32.7608   -3.2290   -2.2798 C.ar      12 UNK        -0.0787 
     12 C12        32.2776   -1.9160   -2.2511 C.ar      12 UNK        -0.0862 
     13 C13        31.0261   -1.6224   -1.7073 C.ar      12 UNK        -0.0733 
     14 C14        30.2927   -2.6364   -1.0914 C.ar      12 UNK        -0.0832 
     15 C15        30.4417   -0.2244   -1.8462 C.3       12 UNK         0.0240 
     16 S16        30.3752    0.2495   -3.6032 S.3       12 UNK        -0.2522 
     17 C17        28.9413    1.3645   -3.6740 C.3       12 UNK        -0.0967 
     18 CA         28.3967    1.4195   -5.1197 C.3       5 UNK         0.0660 
     19 N          27.7840    0.1570   -5.5444 N.am      5 UNK        -0.4015 
     20 C          27.5072   -0.1508   -6.8190 C.2       4 UNK         0.4946 
     21 O          27.7824    0.5700   -7.7768 O.2       4 UNK        -0.5353 
     22 CA         26.7505   -1.4597   -7.0793 C.3       4 UNK         0.0277 
     23 CB         27.7099   -2.6602   -7.0657 C.3       4 UNK        -0.1981 
     24 N          25.6530   -1.6613   -6.1315 N.am      4 UNK        -0.4209 
     25 C          24.5588   -0.8863   -6.0714 C.2       3 UNK         0.4942 
     26 O          24.3461    0.0588   -6.8296 O.2       3 UNK        -0.5208 
     27 CA         23.5462   -1.1923   -4.9556 C.3       3 UNK         0.0250 
     28 CB         22.5553   -2.2768   -5.4070 C.3       3 UNK        -0.1990 
     29 N          24.1858   -1.5998   -3.7032 N.am      3 UNK        -0.4232 
     30 C          24.9729   -0.8095   -2.9589 C.2       2 UNK         0.4993 
     31 O          25.2244    0.3654   -3.2279 O.2       2 UNK        -0.5286 
     32 CA         25.6516   -1.4759   -1.7518 C.3       2 UNK         0.0209 
     33 CB         24.6746   -1.6122   -0.5733 C.3       2 UNK        -0.1931 
     34 N          26.2251   -2.7875   -2.0799 N.am      2 UNK        -0.4546 
     35 C          27.2098   -2.9670   -2.9712 C.2       1 UNK         0.5154 
     36 O          27.6972   -2.0359   -3.6188 O.2       1 UNK        -0.5181 
     37 C          27.4520    2.6186   -5.3186 C.2       5 UNK         0.5014 
     38 O          27.9202    3.6721   -5.7514 O.2       5 UNK        -0.5248 
     39 N          26.1496    2.4463   -5.0420 N.am      6 UNK        -0.4434 
     40 CA         25.1175    3.4628   -5.2778 C.3       6 UNK         0.0363 
     41 CB         23.7802    3.0019   -4.6776 C.3       6 UNK        -0.1936 
     42 C          24.9518    3.8173   -6.7668 C.2       6 UNK         0.5081 
     43 O          24.8191    4.9958   -7.0977 O.2       6 UNK        -0.5248 
     44 N          24.9894    2.7998   -7.6376 N.am      7 UNK        -0.4718 
     45 CA         24.9561    2.9519   -9.0952 C.3       7 UNK         0.0273 
     46 CB         24.5317    1.6123   -9.7199 C.3       7 UNK        -0.1935 
     47 C          26.2971    3.4102   -9.6994 C.2       7 UNK         0.5018 
     48 O          26.3077    3.8550  -10.8478 O.2       7 UNK        -0.5186 
     49 N          27.3935    3.2558   -8.9405 N.am      8 UNK        -0.4240 
     50 CA         28.7986    3.3976   -9.3464 C.3       8 UNK         0.0235 
     51 CB         29.1331    4.8614   -9.7028 C.3       8 UNK        -0.2000 
     52 C          29.1820    2.3939  -10.4546 C.2       8 UNK         0.4941 
     53 O          29.9055    2.7430  -11.3894 O.2       8 UNK        -0.5273 
     54 N          28.6591    1.1670  -10.3355 N.am      9 UNK        -0.4262 
     55 CA         28.7952    0.0903  -11.3141 C.3       9 UNK         0.0264 
     56 CB         27.5471   -0.8054  -11.2510 C.3       9 UNK        -0.1955 
     57 C          30.0640   -0.7470  -11.1011 C.2       9 UNK         0.5031 
     58 O          30.6439   -1.2100  -12.0848 O.2       9 UNK        -0.5390 
     59 N          30.4720   -0.9374   -9.8405 N.am      10 UNK        -0.4204 
     60 CA         31.6445   -1.7151   -9.4474 C.3       10 UNK         0.0237 
     61 CB         31.3376   -3.2245   -9.5155 C.3       10 UNK        -0.1985 
     62 C          32.0561   -1.3148   -8.0291 C.2       10 UNK         0.4970 
     63 O          31.1896   -0.9452   -7.2336 O.2       10 UNK        -0.4914 
     64 N          33.3601   -1.4335   -7.7451 N.am      11 UNK        -0.4285 
     65 CA         34.0009   -1.1131   -6.4594 C.3       11 UNK         0.1007 
     66 C          33.8718    0.3922   -6.0575 C.2       11 UNK         0.5703 
     67 N          34.1128    0.7404   -4.8015 N.am      11 UNK        -0.7361 
     68 O          33.6196    1.2620   -6.8903 O.2       11 UNK        -0.4986 
     69 C69        33.5871   -2.1303   -5.3537 C.3       12 UNK        -0.0947 
     70 S70        34.8387   -2.3361   -4.0369 S.3       12 UNK        -0.2240 
     71 C71        34.0755   -3.6122   -2.9677 C.3       12 UNK         0.0194 
     72 H72        31.7275   -5.5728   -4.8634 H         1 UNK         0.0906 
     73 H73        30.9636   -4.8245   -6.2723 H         1 UNK         0.0906 
     74 H74        31.3156   -3.8568   -4.8406 H         1 UNK         0.0906 
     75 H75        29.5232   -3.4257   -3.5945 H         1 UNK         0.3140 
     76 H76        27.0722   -4.7860   -4.0054 H         1 UNK         0.1085 
     77 H77        28.1785   -6.3232   -2.2739 H         1 UNK         0.0836 
     78 H78        26.5986   -5.7296   -1.9228 H         1 UNK         0.0836 
     79 H79        30.1948   -6.0362   -0.9100 H         1 UNK         0.0731 
     80 H80        30.3328   -5.1884    0.6108 H         1 UNK         0.0731 
     81 H81        32.3699   -5.2539   -1.6797 H         1 UNK         0.1312 
     82 H82        32.8375   -1.1115   -2.7035 H         1 UNK         0.1406 
     83 H83        29.3360   -2.3969   -0.6494 H         1 UNK         0.1631 
     84 H84        31.0535    0.4917   -1.2962 H         1 UNK         0.0717 
     85 H85        29.4398   -0.1849   -1.4166 H         1 UNK         0.0717 
     86 H86        28.1651    1.0297   -2.9830 H         1 UNK         0.0934 
     87 H87        29.2674    2.3494   -3.3332 H         1 UNK         0.0934 
     88 H88        29.2463    1.5964   -5.7845 H         1 UNK         0.0739 
     89 H89        27.6007   -0.5296   -4.8170 H         1 UNK         0.3093 
     90 H90        26.3104   -1.3927   -8.0764 H         1 UNK         0.0818 
     91 H91        28.4803   -2.5434   -7.8287 H         1 UNK         0.0819 
     92 H92        28.2221   -2.7621   -6.1097 H         1 UNK         0.0819 
     93 H93        27.1878   -3.5943   -7.2722 H         1 UNK         0.0819 
     94 H94        25.7660   -2.3925   -5.4468 H         1 UNK         0.3041 
     95 H95        22.9831   -0.2777   -4.7598 H         1 UNK         0.0784 
     96 H96        22.0520   -1.9836   -6.3296 H         1 UNK         0.0793 
     97 H97        23.0523   -3.2293   -5.5958 H         1 UNK         0.0793 
     98 H98        21.7812   -2.4438   -4.6577 H         1 UNK         0.0793 
     99 H99        24.0405   -2.5523   -3.4014 H         1 UNK         0.3024 
    100 H100       26.4712   -0.8231   -1.4420 H         1 UNK         0.1171 
    101 H101       25.1780   -1.9950    0.3149 H         1 UNK         0.0786 
    102 H102       24.2462   -0.6444   -0.3086 H         1 UNK         0.0786 
    103 H103       23.8467   -2.2833   -0.8049 H         1 UNK         0.0786 
    104 H104       25.8916   -3.5822   -1.5528 H         1 UNK         0.2977 
    105 H105       25.8441    1.5749   -4.6149 H         1 UNK         0.3127 
    106 H106       25.4261    4.3710   -4.7557 H         1 UNK         0.0770 
    107 H107       23.4180    2.0905   -5.1529 H         1 UNK         0.0814 
    108 H108       23.0114    3.7647   -4.8074 H         1 UNK         0.0814 
    109 H109       23.8695    2.8100   -3.6082 H         1 UNK         0.0814 
    110 H110       25.0195    1.8479   -7.2801 H         1 UNK         0.2983 
    111 H111       24.2071    3.7044   -9.3516 H         1 UNK         0.0947 
    112 H112       24.4728    1.6851  -10.8067 H         1 UNK         0.0806 
    113 H113       23.5502    1.3012   -9.3617 H         1 UNK         0.0806 
    114 H114       25.2403    0.8174   -9.4825 H         1 UNK         0.0806 
    115 H115       27.2550    2.8531   -8.0223 H         1 UNK         0.3000 
    116 H116       29.3931    3.1259   -8.4726 H         1 UNK         0.0850 
    117 H117       30.2029    4.9855   -9.8746 H         1 UNK         0.0810 
    118 H118       28.8540    5.5380   -8.8950 H         1 UNK         0.0810 
    119 H119       28.6197    5.1875  -10.6076 H         1 UNK         0.0810 
    120 H120       28.1449    0.9554   -9.4799 H         1 UNK         0.3040 
    121 H121       28.8471    0.5262  -12.3144 H         1 UNK         0.0766 
    122 H122       26.6409   -0.2367  -11.4602 H         1 UNK         0.0812 
    123 H123       27.4329   -1.2720  -10.2722 H         1 UNK         0.0812 
    124 H124       27.6043   -1.6062  -11.9895 H         1 UNK         0.0812 
    125 H125       29.9782   -0.4970   -9.0727 H         1 UNK         0.3205 
    126 H126       32.4660   -1.4786  -10.1274 H         1 UNK         0.0754 
    127 H127       32.2032   -3.8149   -9.2125 H         1 UNK         0.0769 
    128 H128       31.0760   -3.5351  -10.5271 H         1 UNK         0.0769 
    129 H129       30.5115   -3.4973   -8.8581 H         1 UNK         0.0769 
    130 H130       33.9896   -1.7272   -8.4776 H         1 UNK         0.2981 
    131 H131       35.0645   -1.2539   -6.6544 H         1 UNK         0.0541 
    132 H132       34.3685    0.0382   -4.1244 H         1 UNK         0.3459 
    133 H133       34.0519    1.7099   -4.5351 H         1 UNK         0.3459 
    134 H134       32.6224   -1.8508   -4.9303 H         1 UNK         0.0612 
    135 H135       33.4454   -3.1169   -5.7971 H         1 UNK         0.0612 
    136 H136       34.7982   -3.8831   -2.1972 H         1 UNK         0.0624 
    137 H137       33.9174   -4.5074   -3.5710 H         1 UNK         0.0624 
@<TRIPOS>BOND
     1    1    2 1    
     2    1   72 1    
     3    1   73 1    
     4    1   74 1    
     5    2    3 2    
     6    2    4 am   BACKBONE|DICT|INTERRES
     7    4    5 1    
     8    4   75 1    
     9    5    6 1    
    10    5   35 1    
    11    5   76 1    
    12    6    7 1    
    13    6   77 1    
    14    6   78 1    
    15    7    8 1    
    16    8    9 1    
    17    8   79 1    
    18    8   80 1    
    19    9   10 ar   
    20    9   14 ar   
    21   10   11 ar   
    22   10   81 1    
    23   11   12 ar   
    24   11   71 1    
    25   12   13 ar   
    26   12   82 1    
    27   13   14 ar   
    28   13   15 1    
    29   14   83 1    
    30   15   16 1    
    31   15   84 1    
    32   15   85 1    
    33   16   17 1    
    34   17   18 1    
    35   17   86 1    
    36   17   87 1    
    37   18   19 1    
    38   18   37 1    
    39   18   88 1    
    40   19   20 am   BACKBONE|DICT|INTERRES
    41   19   89 1    
    42   20   21 2    
    43   20   22 1    
    44   22   23 1    
    45   22   24 1    
    46   22   90 1    
    47   23   91 1    
    48   23   92 1    
    49   23   93 1    
    50   24   25 am   BACKBONE|DICT|INTERRES
    51   24   94 1    
    52   25   26 2    
    53   25   27 1    
    54   27   28 1    
    55   27   29 1    
    56   27   95 1    
    57   28   96 1    
    58   28   97 1    
    59   28   98 1    
    60   29   30 am   BACKBONE|DICT|INTERRES
    61   29   99 1    
    62   30   31 2    
    63   30   32 1    
    64   32   33 1    
    65   32   34 1    
    66   32  100 1    
    67   33  101 1    
    68   33  102 1    
    69   33  103 1    
    70   34   35 am   BACKBONE|DICT|INTERRES
    71   34  104 1    
    72   35   36 2    
    73   37   38 2    
    74   37   39 am   BACKBONE|DICT|INTERRES
    75   39   40 1    
    76   39  105 1    
    77   40   41 1    
    78   40   42 1    
    79   40  106 1    
    80   41  107 1    
    81   41  108 1    
    82   41  109 1    
    83   42   43 2    
    84   42   44 am   BACKBONE|DICT|INTERRES
    85   44   45 1    
    86   44  110 1    
    87   45   46 1    
    88   45   47 1    
    89   45  111 1    
    90   46  112 1    
    91   46  113 1    
    92   46  114 1    
    93   47   48 2    
    94   47   49 am   BACKBONE|DICT|INTERRES
    95   49   50 1    
    96   49  115 1    
    97   50   51 1    
    98   50   52 1    
    99   50  116 1    
   100   51  117 1    
   101   51  118 1    
   102   51  119 1    
   103   52   53 2    
   104   52   54 am   BACKBONE|DICT|INTERRES
   105   54   55 1    
   106   54  120 1    
   107   55   56 1    
   108   55   57 1    
   109   55  121 1    
   110   56  122 1    
   111   56  123 1    
   112   56  124 1    
   113   57   58 2    
   114   57   59 am   BACKBONE|DICT|INTERRES
   115   59   60 1    
   116   59  125 1    
   117   60   61 1    
   118   60   62 1    
   119   60  126 1    
   120   61  127 1    
   121   61  128 1    
   122   61  129 1    
   123   62   63 2    
   124   62   64 am   BACKBONE|DICT|INTERRES
   125   64   65 1    
   126   64  130 1    
   127   65   66 1    
   128   65   69 1    
   129   65  131 1    
   130   66   67 am   BACKBONE|DICT|INTERRES
   131   66   68 2    
   132   67  132 1    
   133   67  133 1    
   134   69   70 1    
   135   69  134 1    
   136   69  135 1    
   137   70   71 1    
   138   71  136 1    
   139   71  137 1    
@<TRIPOS>SUBSTRUCTURE
     1 UNK         1 GROUP             0       ****    0 ROOT    
