@<TRIPOS>MOLECULE
3R137
137   139    1
SMALL
USER_CHARGES


@<TRIPOS>ATOM
      1 CA         23.7044   -5.9985   -2.5523 C.3       0 UNK        -0.2020 
      2 C          24.9115   -5.1030   -2.7840 C.2       0 UNK         0.4855 
      3 O          24.9981   -4.4604   -3.8309 O.2       0 UNK        -0.5197 
      4 N          25.8314   -5.0438   -1.8079 N.am      1 UNK        -0.4892 
      5 CA         27.0764   -4.2606   -1.8322 C.3       1 UNK         0.0835 
      6 C6         28.1160   -4.8688   -2.8148 C.3       12 UNK        -0.0855 
      7 S7         29.8230   -4.2696   -2.5507 S.3       12 UNK        -0.2931 
      8 C8         30.1499   -3.4118   -4.1305 C.3       12 UNK         0.0378 
      9 C9         30.9462   -2.1273   -3.9574 C.ar      12 UNK        -0.0802 
     10 C10        32.0530   -1.8627   -4.7680 C.ar      12 UNK        -0.0944 
     11 C11        32.7580   -0.6600   -4.6431 C.ar      12 UNK        -0.0787 
     12 C12        32.3153    0.3006   -3.7276 C.ar      12 UNK        -0.0862 
     13 C13        31.1829    0.0640   -2.9434 C.ar      12 UNK        -0.0733 
     14 C14        30.5234   -1.1616   -3.0431 C.ar      12 UNK        -0.0832 
     15 C15        30.6467    1.1415   -2.0148 C.3       12 UNK         0.0240 
     16 S16        29.5401    2.2923   -2.8966 S.3       12 UNK        -0.2522 
     17 C17        28.0828    1.2524   -3.2653 C.3       12 UNK        -0.0967 
     18 CA         27.8512    1.0643   -4.7900 C.3       5 UNK         0.0660 
     19 N          27.1984   -0.2123   -5.1174 N.am      5 UNK        -0.4015 
     20 C          26.9348   -0.6529   -6.3593 C.2       4 UNK         0.4946 
     21 O          27.3217   -0.0876   -7.3839 O.2       4 UNK        -0.5353 
     22 CA         26.0458   -1.9017   -6.5026 C.3       4 UNK         0.0277 
     23 CB         26.8754   -3.1893   -6.5321 C.3       4 UNK        -0.1981 
     24 N          25.0131   -1.9945   -5.4688 N.am      4 UNK        -0.4209 
     25 C          23.9815   -1.1436   -5.3721 C.2       3 UNK         0.4942 
     26 O          23.7630   -0.2414   -6.1791 O.2       3 UNK        -0.5208 
     27 CA         23.0816   -1.2758   -4.1348 C.3       3 UNK         0.0250 
     28 CB         22.1011   -2.4508   -4.2790 C.3       3 UNK        -0.1990 
     29 N          23.8644   -1.4135   -2.9050 N.am      3 UNK        -0.4232 
     30 C          24.6570   -0.4525   -2.4080 C.2       2 UNK         0.4993 
     31 O          24.7722    0.6663   -2.9096 O.2       2 UNK        -0.5286 
     32 CA         25.4919   -0.8072   -1.1657 C.3       2 UNK         0.0209 
     33 CB         24.7030   -0.5002    0.1169 C.3       2 UNK        -0.1931 
     34 N          25.9478   -2.2017   -1.1389 N.am      2 UNK        -0.4546 
     35 C          26.7755   -2.7563   -2.0379 C.2       1 UNK         0.5154 
     36 O          27.2222   -2.1435   -3.0089 O.2       1 UNK        -0.5181 
     37 C          27.0791    2.2646   -5.3763 C.2       5 UNK         0.5014 
     38 O          27.6764    3.1166   -6.0342 O.2       5 UNK        -0.5248 
     39 N          25.7584    2.2937   -5.1462 N.am      6 UNK        -0.4434 
     40 CA         24.8520    3.3068   -5.6868 C.3       6 UNK         0.0363 
     41 CB         23.4772    3.1773   -5.0115 C.3       6 UNK        -0.1936 
     42 C          24.7178    3.2374   -7.2184 C.2       6 UNK         0.5081 
     43 O          24.6660    4.2845   -7.8646 O.2       6 UNK        -0.5248 
     44 N          24.6516    2.0173   -7.7688 N.am      7 UNK        -0.4718 
     45 CA         24.4768    1.7681   -9.1999 C.3       7 UNK         0.0273 
     46 CB         24.0572    0.3079   -9.4295 C.3       7 UNK        -0.1935 
     47 C          25.7115    2.1073  -10.0496 C.2       7 UNK         0.5018 
     48 O          25.5427    2.6915  -11.1217 O.2       7 UNK        -0.5186 
     49 N          26.9125    1.7183   -9.5953 N.am      8 UNK        -0.4240 
     50 CA         28.1414    1.8469  -10.3871 C.3       8 UNK         0.0235 
     51 CB         28.2590    0.6662  -11.3711 C.3       8 UNK        -0.2000 
     52 C          29.4263    1.9718   -9.5579 C.2       8 UNK         0.4941 
     53 O          30.3173    2.7101   -9.9797 O.2       8 UNK        -0.5273 
     54 N          29.5269    1.2373   -8.4383 N.am      9 UNK        -0.4262 
     55 CA         30.7263    1.0723   -7.6028 C.3       9 UNK         0.0264 
     56 CB         31.0811    2.3791   -6.8599 C.3       9 UNK        -0.1955 
     57 C          31.9181    0.5021   -8.3987 C.2       9 UNK         0.5031 
     58 O          32.9801    1.1258   -8.4627 O.2       9 UNK        -0.5390 
     59 N          31.7210   -0.6814   -8.9932 N.am      10 UNK        -0.4204 
     60 CA         32.7573   -1.4281   -9.7066 C.3       10 UNK         0.0237 
     61 CB         32.1042   -2.2354  -10.8425 C.3       10 UNK        -0.1985 
     62 C          33.5060   -2.3457   -8.7257 C.2       10 UNK         0.4970 
     63 O          32.9212   -3.3208   -8.2506 O.2       10 UNK        -0.4914 
     64 N          34.7683   -2.0141   -8.4344 N.am      11 UNK        -0.4285 
     65 CA         35.6941   -2.7795   -7.5868 C.3       11 UNK         0.1007 
     66 C          37.1648   -2.3550   -7.8470 C.2       11 UNK         0.5703 
     67 N          38.1304   -3.0741   -7.2908 N.am      11 UNK        -0.7361 
     68 O          37.4417   -1.3862   -8.5543 O.2       11 UNK        -0.4986 
     69 C69        35.3022   -2.8125   -6.0752 C.3       12 UNK        -0.0947 
     70 S70        35.4670   -1.2400   -5.1495 S.3       12 UNK        -0.2240 
     71 C71        33.9348   -0.3468   -5.5576 C.3       12 UNK         0.0194 
     72 H72        23.7589   -6.5205   -1.5973 H         1 UNK         0.0906 
     73 H73        22.7899   -5.4063   -2.5646 H         1 UNK         0.0906 
     74 H74        23.6368   -6.7449   -3.3432 H         1 UNK         0.0906 
     75 H75        25.6850   -5.5894   -0.9689 H         1 UNK         0.3140 
     76 H76        27.5002   -4.3419   -0.8296 H         1 UNK         0.1085 
     77 H77        27.8036   -4.7318   -3.8482 H         1 UNK         0.0836 
     78 H78        28.1479   -5.9502   -2.6736 H         1 UNK         0.0836 
     79 H79        29.2152   -3.1332   -4.6102 H         1 UNK         0.0731 
     80 H80        30.6544   -4.1020   -4.8084 H         1 UNK         0.0731 
     81 H81        32.3406   -2.5859   -5.5150 H         1 UNK         0.1312 
     82 H82        32.8271    1.2504   -3.6513 H         1 UNK         0.1406 
     83 H83        29.6551   -1.3601   -2.4316 H         1 UNK         0.1631 
     84 H84        31.4771    1.7070   -1.5896 H         1 UNK         0.0717 
     85 H85        30.1169    0.6971   -1.1706 H         1 UNK         0.0717 
     86 H86        28.2089    0.2888   -2.7790 H         1 UNK         0.0934 
     87 H87        27.2149    1.6967   -2.7750 H         1 UNK         0.0934 
     88 H88        28.8249    1.0262   -5.2792 H         1 UNK         0.0739 
     89 H89        26.9332   -0.8039   -4.3342 H         1 UNK         0.3093 
     90 H90        25.5409   -1.8227   -7.4663 H         1 UNK         0.0818 
     91 H91        27.2546   -3.4284   -5.5437 H         1 UNK         0.0819 
     92 H92        26.2747   -4.0356   -6.8655 H         1 UNK         0.0819 
     93 H93        27.7262   -3.1034   -7.2095 H         1 UNK         0.0819 
     94 H94        25.1113   -2.7364   -4.7795 H         1 UNK         0.3041 
     95 H95        22.4958   -0.3572   -4.0540 H         1 UNK         0.0784 
     96 H96        21.4789   -2.3275   -5.1665 H         1 UNK         0.0793 
     97 H97        22.6168   -3.4059   -4.3769 H         1 UNK         0.0793 
     98 H98        21.4311   -2.5166   -3.4217 H         1 UNK         0.0793 
     99 H99        23.8575   -2.3152   -2.4520 H         1 UNK         0.3024 
    100 H100       26.3779   -0.1698   -1.1781 H         1 UNK         0.1171 
    101 H101       25.3151   -0.6529    1.0060 H         1 UNK         0.0786 
    102 H102       24.3704    0.5389    0.1303 H         1 UNK         0.0786 
    103 H103       23.8153   -1.1275    0.2072 H         1 UNK         0.0786 
    104 H104       25.5991   -2.7794   -0.3872 H         1 UNK         0.2977 
    105 H105       25.3474    1.5815   -4.5473 H         1 UNK         0.3127 
    106 H106       25.2616    4.2875   -5.4354 H         1 UNK         0.0770 
    107 H107       23.0206    2.2065   -5.2068 H         1 UNK         0.0814 
    108 H108       22.7897    3.9414   -5.3763 H         1 UNK         0.0814 
    109 H109       23.5538    3.2975   -3.9307 H         1 UNK         0.0814 
    110 H110       24.6174    1.2078   -7.1545 H         1 UNK         0.2983 
    111 H111       23.6592    2.4046   -9.5460 H         1 UNK         0.0947 
    112 H112       23.8564    0.1219  -10.4854 H         1 UNK         0.0806 
    113 H113       23.1490    0.0622   -8.8789 H         1 UNK         0.0806 
    114 H114       24.8374   -0.3869   -9.1210 H         1 UNK         0.0806 
    115 H115       26.9735    1.2365   -8.7015 H         1 UNK         0.3000 
    116 H116       28.0799    2.7678  -10.9720 H         1 UNK         0.0850 
    117 H117       29.1817    0.7269  -11.9502 H         1 UNK         0.0810 
    118 H118       27.4337    0.6565  -12.0831 H         1 UNK         0.0810 
    119 H119       28.2624   -0.2915  -10.8493 H         1 UNK         0.0810 
    120 H120       28.7246    0.6768   -8.1524 H         1 UNK         0.3040 
    121 H121       30.4793    0.3249   -6.8473 H         1 UNK         0.0766 
    122 H122       30.2494    2.7382   -6.2569 H         1 UNK         0.0812 
    123 H123       31.3621    3.1765   -7.5481 H         1 UNK         0.0812 
    124 H124       31.9218    2.2240   -6.1830 H         1 UNK         0.0812 
    125 H125       30.8334   -1.1475   -8.8711 H         1 UNK         0.3205 
    126 H126       33.4675   -0.7338  -10.1616 H         1 UNK         0.0754 
    127 H127       32.8521   -2.8073  -11.3933 H         1 UNK         0.0769 
    128 H128       31.6069   -1.5794  -11.5575 H         1 UNK         0.0769 
    129 H129       31.3635   -2.9432  -10.4677 H         1 UNK         0.0769 
    130 H130       35.1897   -1.2002   -8.8639 H         1 UNK         0.2981 
    131 H131       35.6372   -3.8062   -7.9534 H         1 UNK         0.0541 
    132 H132       37.9202   -3.8702   -6.7094 H         1 UNK         0.3459 
    133 H133       39.0901   -2.8112   -7.4518 H         1 UNK         0.3459 
    134 H134       35.9331   -3.5389   -5.5614 H         1 UNK         0.0612 
    135 H135       34.2982   -3.2082   -5.9574 H         1 UNK         0.0612 
    136 H136       33.6550   -0.5729   -6.5774 H         1 UNK         0.0624 
    137 H137       34.1509    0.7225   -5.5411 H         1 UNK         0.0624 
@<TRIPOS>BOND
     1    1    2 1    
     2    1   72 1    
     3    1   73 1    
     4    1   74 1    
     5    2    3 2    
     6    2    4 am   BACKBONE|DICT|INTERRES
     7    4    5 1    
     8    4   75 1    
     9    5    6 1    
    10    5   35 1    
    11    5   76 1    
    12    6    7 1    
    13    6   77 1    
    14    6   78 1    
    15    7    8 1    
    16    8    9 1    
    17    8   79 1    
    18    8   80 1    
    19    9   10 ar   
    20    9   14 ar   
    21   10   11 ar   
    22   10   81 1    
    23   11   12 ar   
    24   11   71 1    
    25   12   13 ar   
    26   12   82 1    
    27   13   14 ar   
    28   13   15 1    
    29   14   83 1    
    30   15   16 1    
    31   15   84 1    
    32   15   85 1    
    33   16   17 1    
    34   17   18 1    
    35   17   86 1    
    36   17   87 1    
    37   18   19 1    
    38   18   37 1    
    39   18   88 1    
    40   19   20 am   BACKBONE|DICT|INTERRES
    41   19   89 1    
    42   20   21 2    
    43   20   22 1    
    44   22   23 1    
    45   22   24 1    
    46   22   90 1    
    47   23   91 1    
    48   23   92 1    
    49   23   93 1    
    50   24   25 am   BACKBONE|DICT|INTERRES
    51   24   94 1    
    52   25   26 2    
    53   25   27 1    
    54   27   28 1    
    55   27   29 1    
    56   27   95 1    
    57   28   96 1    
    58   28   97 1    
    59   28   98 1    
    60   29   30 am   BACKBONE|DICT|INTERRES
    61   29   99 1    
    62   30   31 2    
    63   30   32 1    
    64   32   33 1    
    65   32   34 1    
    66   32  100 1    
    67   33  101 1    
    68   33  102 1    
    69   33  103 1    
    70   34   35 am   BACKBONE|DICT|INTERRES
    71   34  104 1    
    72   35   36 2    
    73   37   38 2    
    74   37   39 am   BACKBONE|DICT|INTERRES
    75   39   40 1    
    76   39  105 1    
    77   40   41 1    
    78   40   42 1    
    79   40  106 1    
    80   41  107 1    
    81   41  108 1    
    82   41  109 1    
    83   42   43 2    
    84   42   44 am   BACKBONE|DICT|INTERRES
    85   44   45 1    
    86   44  110 1    
    87   45   46 1    
    88   45   47 1    
    89   45  111 1    
    90   46  112 1    
    91   46  113 1    
    92   46  114 1    
    93   47   48 2    
    94   47   49 am   BACKBONE|DICT|INTERRES
    95   49   50 1    
    96   49  115 1    
    97   50   51 1    
    98   50   52 1    
    99   50  116 1    
   100   51  117 1    
   101   51  118 1    
   102   51  119 1    
   103   52   53 2    
   104   52   54 am   BACKBONE|DICT|INTERRES
   105   54   55 1    
   106   54  120 1    
   107   55   56 1    
   108   55   57 1    
   109   55  121 1    
   110   56  122 1    
   111   56  123 1    
   112   56  124 1    
   113   57   58 2    
   114   57   59 am   BACKBONE|DICT|INTERRES
   115   59   60 1    
   116   59  125 1    
   117   60   61 1    
   118   60   62 1    
   119   60  126 1    
   120   61  127 1    
   121   61  128 1    
   122   61  129 1    
   123   62   63 2    
   124   62   64 am   BACKBONE|DICT|INTERRES
   125   64   65 1    
   126   64  130 1    
   127   65   66 1    
   128   65   69 1    
   129   65  131 1    
   130   66   67 am   BACKBONE|DICT|INTERRES
   131   66   68 2    
   132   67  132 1    
   133   67  133 1    
   134   69   70 1    
   135   69  134 1    
   136   69  135 1    
   137   70   71 1    
   138   71  136 1    
   139   71  137 1    
@<TRIPOS>SUBSTRUCTURE
     1 UNK         1 GROUP             0       ****    0 ROOT    
