@<TRIPOS>MOLECULE
3R137
137   139    1
SMALL
USER_CHARGES


@<TRIPOS>ATOM
      1 CA         23.8457   -1.0156   -7.6420 C.3       0 UNK        -0.2020 
      2 C          23.9499   -2.4161   -7.0555 C.2       0 UNK         0.4855 
      3 O          23.3963   -3.3613   -7.6186 O.2       0 UNK        -0.5197 
      4 N          24.6584   -2.5479   -5.9322 N.am      1 UNK        -0.4892 
      5 CA         24.8415   -3.7868   -5.1723 C.3       1 UNK         0.0835 
      6 C6         26.3086   -3.9120   -4.6857 C.3       12 UNK        -0.0855 
      7 S7         27.4599   -4.1582   -6.0765 S.3       12 UNK        -0.2931 
      8 C8         28.9578   -4.7019   -5.2000 C.3       12 UNK         0.0378 
      9 C9         29.5949   -3.5641   -4.4168 C.ar      12 UNK        -0.0802 
     10 C10        30.4026   -2.6326   -5.0753 C.ar      12 UNK        -0.0944 
     11 C11        31.0108   -1.5950   -4.3647 C.ar      12 UNK        -0.0787 
     12 C12        30.8118   -1.4953   -2.9857 C.ar      12 UNK        -0.0862 
     13 C13        29.9883   -2.4081   -2.3183 C.ar      12 UNK        -0.0733 
     14 C14        29.3867   -3.4450   -3.0383 C.ar      12 UNK        -0.0832 
     15 C15        29.7447   -2.2687   -0.8209 C.3       12 UNK         0.0240 
     16 S16        28.1648   -1.4326   -0.4556 S.3       12 UNK        -0.2522 
     17 C17        28.4229    0.1973   -1.2341 C.3       12 UNK        -0.0967 
     18 CA         27.6808    0.2889   -2.5929 C.3       5 UNK         0.0660 
     19 N          26.2297    0.3847   -2.3956 N.am      5 UNK        -0.4015 
     20 C          25.2897    0.1132   -3.3072 C.2       4 UNK         0.4946 
     21 O          25.5370   -0.3239   -4.4345 O.2       4 UNK        -0.5353 
     22 CA         23.8406    0.3845   -2.8810 C.3       4 UNK         0.0277 
     23 CB         22.8805    0.4796   -4.0823 C.3       4 UNK        -0.1981 
     24 N          23.3823   -0.6590   -1.9644 N.am      4 UNK        -0.4209 
     25 C          23.5689   -0.6389   -0.6361 C.2       3 UNK         0.4942 
     26 O          24.1659    0.2703   -0.0566 O.2       3 UNK        -0.5208 
     27 CA         22.9899   -1.7972    0.1999 C.3       3 UNK         0.0250 
     28 CB         21.6897   -1.3558    0.8922 C.3       3 UNK        -0.1990 
     29 N          22.7240   -3.0053   -0.5839 N.am      3 UNK        -0.4232 
     30 C          23.6566   -3.9001   -0.9343 C.2       2 UNK         0.4993 
     31 O          24.8316   -3.8422   -0.5697 O.2       2 UNK        -0.5286 
     32 CA         23.2323   -5.0362   -1.8876 C.3       2 UNK         0.0209 
     33 CB         21.7034   -5.1870   -2.0705 C.3       2 UNK        -0.1931 
     34 N          23.9073   -4.8908   -3.1848 N.am      2 UNK        -0.4546 
     35 C          23.8554   -3.8145   -3.9856 C.2       1 UNK         0.5154 
     36 O          23.0872   -2.8687   -3.7884 O.2       1 UNK        -0.5181 
     37 C          28.2037    1.4336   -3.4923 C.2       5 UNK         0.5014 
     38 O          29.0255    2.2452   -3.0624 O.2       5 UNK        -0.5248 
     39 N          27.6972    1.4794   -4.7267 N.am      6 UNK        -0.4434 
     40 CA         28.0219    2.4314   -5.7785 C.3       6 UNK         0.0363 
     41 CB         27.2240    3.7351   -5.5806 C.3       6 UNK        -0.1936 
     42 C          27.7006    1.7285   -7.1004 C.2       6 UNK         0.5081 
     43 O          26.5913    1.8624   -7.6195 O.2       6 UNK        -0.5248 
     44 N          28.6556    0.9281   -7.5777 N.am      7 UNK        -0.4718 
     45 CA         28.5466    0.0889   -8.7671 C.3       7 UNK         0.0273 
     46 CB         27.9962   -1.2905   -8.3585 C.3       7 UNK        -0.1935 
     47 C          29.9281   -0.0303   -9.4237 C.2       7 UNK         0.5018 
     48 O          30.9192    0.4243   -8.8446 O.2       7 UNK        -0.5186 
     49 N          29.9644   -0.6429  -10.6175 N.am      8 UNK        -0.4240 
     50 CA         31.1567   -0.9210  -11.4335 C.3       8 UNK         0.0235 
     51 CB         32.0086   -2.0299  -10.7803 C.3       8 UNK        -0.2000 
     52 C          31.9675    0.3489  -11.7568 C.2       8 UNK         0.4941 
     53 O          33.1832    0.3819  -11.5438 O.2       8 UNK        -0.5273 
     54 N          31.2546    1.3903  -12.2134 N.am      9 UNK        -0.4262 
     55 CA         31.7030    2.7574  -12.5198 C.3       9 UNK         0.0264 
     56 CB         32.7480    2.7753  -13.6537 C.3       9 UNK        -0.1955 
     57 C          32.1934    3.5405  -11.2882 C.2       9 UNK         0.5031 
     58 O          31.6620    4.6137  -11.0003 O.2       9 UNK        -0.5390 
     59 N          33.1808    2.9832  -10.5849 N.am      10 UNK        -0.4204 
     60 CA         33.7769    3.4974   -9.3564 C.3       10 UNK         0.0237 
     61 CB         34.7773    4.6277   -9.6782 C.3       10 UNK        -0.1985 
     62 C          34.4058    2.3314   -8.5776 C.2       10 UNK         0.4970 
     63 O          35.5584    2.4287   -8.1523 O.2       10 UNK        -0.4914 
     64 N          33.6436    1.2404   -8.4204 N.am      11 UNK        -0.4285 
     65 CA         34.0536   -0.0013   -7.7497 C.3       11 UNK         0.1007 
     66 C          35.1821   -0.7875   -8.4847 C.2       11 UNK         0.5703 
     67 N          35.2530   -0.7287   -9.8099 N.am      11 UNK        -0.7361 
     68 O          35.9927   -1.4707   -7.8630 O.2       11 UNK        -0.4986 
     69 C69        34.2895    0.2086   -6.2231 C.3       12 UNK        -0.0947 
     70 S70        33.5927   -1.1490   -5.2291 S.3       12 UNK        -0.2240 
     71 C71        31.8728   -0.5762   -5.0894 C.3       12 UNK         0.0194 
     72 H72        24.2120   -1.0090   -8.6682 H         1 UNK         0.0906 
     73 H73        22.8073   -0.6857   -7.6456 H         1 UNK         0.0906 
     74 H74        24.4299   -0.2919   -7.0724 H         1 UNK         0.0906 
     75 H75        25.0233   -1.7144   -5.4709 H         1 UNK         0.3140 
     76 H76        24.6054   -4.6486   -5.8004 H         1 UNK         0.1085 
     77 H77        26.6088   -3.0214   -4.1290 H         1 UNK         0.0836 
     78 H78        26.4334   -4.7557   -4.0053 H         1 UNK         0.0836 
     79 H79        29.6725   -5.0837   -5.9307 H         1 UNK         0.0731 
     80 H80        28.7192   -5.5406   -4.5441 H         1 UNK         0.0731 
     81 H81        30.5593   -2.7168   -6.1422 H         1 UNK         0.1312 
     82 H82        31.2898   -0.6963   -2.4358 H         1 UNK         0.1406 
     83 H83        28.7518   -4.1541   -2.5244 H         1 UNK         0.1631 
     84 H84        30.5612   -1.7207   -0.3480 H         1 UNK         0.0717 
     85 H85        29.7353   -3.2566   -0.3581 H         1 UNK         0.0717 
     86 H86        29.4944    0.3664   -1.3448 H         1 UNK         0.0934 
     87 H87        28.0767    0.9757   -0.5519 H         1 UNK         0.0934 
     88 H88        27.8809   -0.6316   -3.1464 H         1 UNK         0.0739 
     89 H89        25.9230    0.6949   -1.4822 H         1 UNK         0.3093 
     90 H90        23.8176    1.3523   -2.3750 H         1 UNK         0.0818 
     91 H91        22.8377   -0.4487   -4.6510 H         1 UNK         0.0819 
     92 H92        21.8673    0.7198   -3.7605 H         1 UNK         0.0819 
     93 H93        23.1973    1.2643   -4.7705 H         1 UNK         0.0819 
     94 H94        22.9905   -1.4876   -2.4038 H         1 UNK         0.3041 
     95 H95        23.7216   -2.0350    0.9755 H         1 UNK         0.0784 
     96 H96        21.8578   -0.4743    1.5128 H         1 UNK         0.0793 
     97 H97        20.9125   -1.1022    0.1701 H         1 UNK         0.0793 
     98 H98        21.3014   -2.1387    1.5441 H         1 UNK         0.0793 
     99 H99        21.7887   -3.1189   -0.9478 H         1 UNK         0.3024 
    100 H100       23.6026   -5.9595   -1.4383 H         1 UNK         0.1171 
    101 H101       21.4720   -6.0540   -2.6895 H         1 UNK         0.0786 
    102 H102       21.2059   -5.3414   -1.1120 H         1 UNK         0.0786 
    103 H103       21.2474   -4.3185   -2.5464 H         1 UNK         0.0786 
    104 H104       24.5640   -5.6247   -3.4115 H         1 UNK         0.2977 
    105 H105       26.9999    0.7774   -4.9712 H         1 UNK         0.3127 
    106 H106       29.0895    2.6609   -5.7527 H         1 UNK         0.0770 
    107 H107       26.1494    3.5508   -5.5471 H         1 UNK         0.0814 
    108 H108       27.4120    4.4333   -6.3971 H         1 UNK         0.0814 
    109 H109       27.5056    4.2353   -4.6540 H         1 UNK         0.0814 
    110 H110       29.5685    0.9119   -7.1413 H         1 UNK         0.2983 
    111 H111       27.8718    0.5571   -9.4873 H         1 UNK         0.0947 
    112 H112       27.8549   -1.9398   -9.2228 H         1 UNK         0.0806 
    113 H113       28.6720   -1.8022   -7.6723 H         1 UNK         0.0806 
    114 H114       27.0290   -1.2030   -7.8627 H         1 UNK         0.0806 
    115 H115       29.0900   -0.9676  -11.0075 H         1 UNK         0.3000 
    116 H116       30.8011   -1.3037  -12.3915 H         1 UNK         0.0850 
    117 H117       32.8664   -2.2862  -11.4036 H         1 UNK         0.0810 
    118 H118       31.4287   -2.9418  -10.6388 H         1 UNK         0.0810 
    119 H119       32.3925   -1.7268   -9.8074 H         1 UNK         0.0810 
    120 H120       30.2583    1.2476  -12.3064 H         1 UNK         0.3040 
    121 H121       30.8192    3.2808  -12.8888 H         1 UNK         0.0766 
    122 H122       33.6705    2.2650  -13.3755 H         1 UNK         0.0812 
    123 H123       33.0139    3.7993  -13.9196 H         1 UNK         0.0812 
    124 H124       32.3617    2.2976  -14.5540 H         1 UNK         0.0812 
    125 H125       33.4911    2.0605  -10.8890 H         1 UNK         0.3205 
    126 H126       32.9842    3.9043   -8.7251 H         1 UNK         0.0754 
    127 H127       35.2213    5.0301   -8.7668 H         1 UNK         0.0769 
    128 H128       34.2909    5.4576  -10.1908 H         1 UNK         0.0769 
    129 H129       35.5909    4.2734  -10.3122 H         1 UNK         0.0769 
    130 H130       32.6954    1.2230   -8.7858 H         1 UNK         0.2981 
    131 H131       33.1821   -0.6455   -7.8592 H         1 UNK         0.0541 
    132 H132       35.9815   -1.2375  -10.2835 H         1 UNK         0.3459 
    133 H133       34.5546   -0.2291  -10.3518 H         1 UNK         0.3459 
    134 H134       35.3505    0.3175   -5.9924 H         1 UNK         0.0612 
    135 H135       33.8262    1.1354   -5.8806 H         1 UNK         0.0612 
    136 H136       31.4672   -0.3924   -6.0856 H         1 UNK         0.0624 
    137 H137       31.8486    0.3804   -4.5648 H         1 UNK         0.0624 
@<TRIPOS>BOND
     1    1    2 1    
     2    1   72 1    
     3    1   73 1    
     4    1   74 1    
     5    2    3 2    
     6    2    4 am   BACKBONE|DICT|INTERRES
     7    4    5 1    
     8    4   75 1    
     9    5    6 1    
    10    5   35 1    
    11    5   76 1    
    12    6    7 1    
    13    6   77 1    
    14    6   78 1    
    15    7    8 1    
    16    8    9 1    
    17    8   79 1    
    18    8   80 1    
    19    9   10 ar   
    20    9   14 ar   
    21   10   11 ar   
    22   10   81 1    
    23   11   12 ar   
    24   11   71 1    
    25   12   13 ar   
    26   12   82 1    
    27   13   14 ar   
    28   13   15 1    
    29   14   83 1    
    30   15   16 1    
    31   15   84 1    
    32   15   85 1    
    33   16   17 1    
    34   17   18 1    
    35   17   86 1    
    36   17   87 1    
    37   18   19 1    
    38   18   37 1    
    39   18   88 1    
    40   19   20 am   BACKBONE|DICT|INTERRES
    41   19   89 1    
    42   20   21 2    
    43   20   22 1    
    44   22   23 1    
    45   22   24 1    
    46   22   90 1    
    47   23   91 1    
    48   23   92 1    
    49   23   93 1    
    50   24   25 am   BACKBONE|DICT|INTERRES
    51   24   94 1    
    52   25   26 2    
    53   25   27 1    
    54   27   28 1    
    55   27   29 1    
    56   27   95 1    
    57   28   96 1    
    58   28   97 1    
    59   28   98 1    
    60   29   30 am   BACKBONE|DICT|INTERRES
    61   29   99 1    
    62   30   31 2    
    63   30   32 1    
    64   32   33 1    
    65   32   34 1    
    66   32  100 1    
    67   33  101 1    
    68   33  102 1    
    69   33  103 1    
    70   34   35 am   BACKBONE|DICT|INTERRES
    71   34  104 1    
    72   35   36 2    
    73   37   38 2    
    74   37   39 am   BACKBONE|DICT|INTERRES
    75   39   40 1    
    76   39  105 1    
    77   40   41 1    
    78   40   42 1    
    79   40  106 1    
    80   41  107 1    
    81   41  108 1    
    82   41  109 1    
    83   42   43 2    
    84   42   44 am   BACKBONE|DICT|INTERRES
    85   44   45 1    
    86   44  110 1    
    87   45   46 1    
    88   45   47 1    
    89   45  111 1    
    90   46  112 1    
    91   46  113 1    
    92   46  114 1    
    93   47   48 2    
    94   47   49 am   BACKBONE|DICT|INTERRES
    95   49   50 1    
    96   49  115 1    
    97   50   51 1    
    98   50   52 1    
    99   50  116 1    
   100   51  117 1    
   101   51  118 1    
   102   51  119 1    
   103   52   53 2    
   104   52   54 am   BACKBONE|DICT|INTERRES
   105   54   55 1    
   106   54  120 1    
   107   55   56 1    
   108   55   57 1    
   109   55  121 1    
   110   56  122 1    
   111   56  123 1    
   112   56  124 1    
   113   57   58 2    
   114   57   59 am   BACKBONE|DICT|INTERRES
   115   59   60 1    
   116   59  125 1    
   117   60   61 1    
   118   60   62 1    
   119   60  126 1    
   120   61  127 1    
   121   61  128 1    
   122   61  129 1    
   123   62   63 2    
   124   62   64 am   BACKBONE|DICT|INTERRES
   125   64   65 1    
   126   64  130 1    
   127   65   66 1    
   128   65   69 1    
   129   65  131 1    
   130   66   67 am   BACKBONE|DICT|INTERRES
   131   66   68 2    
   132   67  132 1    
   133   67  133 1    
   134   69   70 1    
   135   69  134 1    
   136   69  135 1    
   137   70   71 1    
   138   71  136 1    
   139   71  137 1    
@<TRIPOS>SUBSTRUCTURE
     1 UNK         1 GROUP             0       ****    0 ROOT    
