@<TRIPOS>MOLECULE
3R137
137   139    1
SMALL
USER_CHARGES


@<TRIPOS>ATOM
      1 CA         25.8447   -3.8074    2.6829 C.3       0 UNK        -0.2020 
      2 C          26.1732   -3.0352    1.4152 C.2       0 UNK         0.4855 
      3 O          25.7585   -1.8847    1.2717 O.2       0 UNK        -0.5197 
      4 N          26.9009   -3.6597    0.4814 N.am      1 UNK        -0.4892 
      5 CA         27.3508   -3.0810   -0.7934 C.3       1 UNK         0.0835 
      6 C6         28.6362   -3.7824   -1.3044 C.3       12 UNK        -0.0855 
      7 S7         30.0266   -3.5615   -0.1388 S.3       12 UNK        -0.2931 
      8 C8         31.4778   -3.5498   -1.2458 C.3       12 UNK         0.0378 
      9 C9         31.4153   -2.4684   -2.3193 C.ar      12 UNK        -0.0802 
     10 C10        31.6518   -2.8035   -3.6559 C.ar      12 UNK        -0.0944 
     11 C11        31.5935   -1.8287   -4.6555 C.ar      12 UNK        -0.0787 
     12 C12        31.2759   -0.5116   -4.3142 C.ar      12 UNK        -0.0862 
     13 C13        31.0295   -0.1623   -2.9812 C.ar      12 UNK        -0.0733 
     14 C14        31.1250   -1.1409   -1.9867 C.ar      12 UNK        -0.0832 
     15 C15        30.6606    1.2731   -2.6202 C.3       12 UNK         0.0240 
     16 S16        29.0726    1.4196   -1.7209 S.3       12 UNK        -0.2522 
     17 C17        27.9222    0.3267   -2.6295 C.3       12 UNK        -0.0967 
     18 CA         27.8500    0.5645   -4.1559 C.3       5 UNK         0.0660 
     19 N          27.3846   -0.6323   -4.8565 N.am      5 UNK        -0.4015 
     20 C          27.7148   -0.9427   -6.1158 C.2       4 UNK         0.4946 
     21 O          28.4509   -0.2543   -6.8213 O.2       4 UNK        -0.5353 
     22 CA         27.0932   -2.2204   -6.7001 C.3       4 UNK         0.0277 
     23 CB         27.9414   -3.4479   -6.3311 C.3       4 UNK        -0.1981 
     24 N          25.7071   -2.4218   -6.2709 N.am      4 UNK        -0.4209 
     25 C          24.6939   -1.6146   -6.6191 C.2       3 UNK         0.4942 
     26 O          24.8210   -0.6410   -7.3602 O.2       3 UNK        -0.5208 
     27 CA         23.3146   -1.9065   -6.0061 C.3       3 UNK         0.0250 
     28 CB         22.5335   -2.8918   -6.8897 C.3       3 UNK        -0.1990 
     29 N          23.3533   -2.4093   -4.6295 N.am      3 UNK        -0.4232 
     30 C          23.9442   -1.8087   -3.5861 C.2       2 UNK         0.4993 
     31 O          24.5925   -0.7630   -3.6762 O.2       2 UNK        -0.5286 
     32 CA         23.7929   -2.4821   -2.2079 C.3       2 UNK         0.0209 
     33 CB         23.1575   -3.8913   -2.2548 C.3       2 UNK        -0.1931 
     34 N          25.0548   -2.5303   -1.4624 N.am      2 UNK        -0.4546 
     35 C          26.2174   -3.0753   -1.8475 C.2       1 UNK         0.5154 
     36 O          26.4018   -3.5705   -2.9617 O.2       1 UNK        -0.5181 
     37 C          27.0245    1.8058   -4.5368 C.2       5 UNK         0.5014 
     38 O          27.5882    2.8979   -4.6121 O.2       5 UNK        -0.5248 
     39 N          25.7267    1.6198   -4.8236 N.am      6 UNK        -0.4434 
     40 CA         24.8527    2.6500   -5.3913 C.3       6 UNK         0.0363 
     41 CB         23.3998    2.1511   -5.4105 C.3       6 UNK        -0.1936 
     42 C          25.3023    3.0861   -6.7982 C.2       6 UNK         0.5081 
     43 O          25.3051    4.2833   -7.0860 O.2       6 UNK        -0.5248 
     44 N          25.6985    2.1160   -7.6361 N.am      7 UNK        -0.4718 
     45 CA         26.3077    2.3531   -8.9468 C.3       7 UNK         0.0273 
     46 CB         26.3136    1.0459   -9.7558 C.3       7 UNK        -0.1935 
     47 C          27.7335    2.9181   -8.8407 C.2       7 UNK         0.5018 
     48 O          28.1016    3.7764   -9.6436 O.2       7 UNK        -0.5186 
     49 N          28.5153    2.4043   -7.8783 N.am      8 UNK        -0.4240 
     50 CA         29.9117    2.7166   -7.5379 C.3       8 UNK         0.0235 
     51 CB         30.0934    4.1992   -7.1618 C.3       8 UNK        -0.2000 
     52 C          30.9287    2.2739   -8.6039 C.2       8 UNK         0.4941 
     53 O          31.9337    1.6531   -8.2605 O.2       8 UNK        -0.5273 
     54 N          30.6291    2.5478   -9.8796 N.am      9 UNK        -0.4262 
     55 CA         31.3989    2.1521  -11.0633 C.3       9 UNK         0.0264 
     56 CB         30.9086    2.9805  -12.2644 C.3       9 UNK        -0.1955 
     57 C          31.3426    0.6426  -11.3807 C.2       9 UNK         0.5031 
     58 O          32.0066    0.2032  -12.3207 O.2       9 UNK        -0.5390 
     59 N          30.5637   -0.1274  -10.6066 N.am      10 UNK        -0.4204 
     60 CA         30.4369   -1.5846  -10.6965 C.3       10 UNK         0.0237 
     61 CB         29.2602   -2.0352   -9.8165 C.3       10 UNK        -0.1985 
     62 C          31.7155   -2.3544  -10.3102 C.2       10 UNK         0.4970 
     63 O          31.8140   -3.5374  -10.6397 O.2       10 UNK        -0.4914 
     64 N          32.6605   -1.6928   -9.6325 N.am      11 UNK        -0.4285 
     65 CA         33.9724   -2.2334   -9.2684 C.3       11 UNK         0.1007 
     66 C          35.0852   -1.1539   -9.3697 C.2       11 UNK         0.5703 
     67 N          36.3385   -1.5302   -9.1578 N.am      11 UNK        -0.7361 
     68 O          34.8328    0.0159   -9.6527 O.2       11 UNK        -0.4986 
     69 C69        33.9314   -2.9958   -7.9151 C.3       12 UNK        -0.0947 
     70 S70        33.6625   -1.9387   -6.4500 S.3       12 UNK        -0.2240 
     71 C71        31.8981   -2.2003   -6.0982 C.3       12 UNK         0.0194 
     72 H72        26.2525   -4.8181    2.6626 H         1 UNK         0.0906 
     73 H73        26.2560   -3.2935    3.5513 H         1 UNK         0.0906 
     74 H74        24.7646   -3.8793    2.8085 H         1 UNK         0.0906 
     75 H75        27.2015   -4.6095    0.6480 H         1 UNK         0.3140 
     76 H76        27.6015   -2.0333   -0.6150 H         1 UNK         0.1085 
     77 H77        28.9195   -3.3821   -2.2788 H         1 UNK         0.0836 
     78 H78        28.4651   -4.8497   -1.4542 H         1 UNK         0.0836 
     79 H79        31.5730   -4.5386   -1.6975 H         1 UNK         0.0731 
     80 H80        32.3764   -3.3975   -0.6464 H         1 UNK         0.0731 
     81 H81        31.8940   -3.8237   -3.9210 H         1 UNK         0.1312 
     82 H82        31.2253    0.2390   -5.0917 H         1 UNK         0.1406 
     83 H83        30.9419   -0.8738   -0.9544 H         1 UNK         0.1631 
     84 H84        30.6171    1.9006   -3.5120 H         1 UNK         0.0717 
     85 H85        31.4521    1.6930   -1.9983 H         1 UNK         0.0717 
     86 H86        28.2626   -0.6916   -2.4423 H         1 UNK         0.0934 
     87 H87        26.9315    0.3930   -2.1748 H         1 UNK         0.0934 
     88 H88        28.8552    0.7633   -4.5215 H         1 UNK         0.0739 
     89 H89        26.7138   -1.2138   -4.3705 H         1 UNK         0.3093 
     90 H90        27.0921   -2.1190   -7.7872 H         1 UNK         0.0818 
     91 H91        28.9723   -3.3235   -6.6651 H         1 UNK         0.0819 
     92 H92        27.9677   -3.6146   -5.2533 H         1 UNK         0.0819 
     93 H93        27.5568   -4.3525   -6.8021 H         1 UNK         0.0819 
     94 H94        25.5262   -3.1829   -5.6308 H         1 UNK         0.3041 
     95 H95        22.7630   -0.9656   -5.9851 H         1 UNK         0.0784 
     96 H96        22.4705   -2.5285   -7.9167 H         1 UNK         0.0793 
     97 H97        23.0086   -3.8732   -6.9197 H         1 UNK         0.0793 
     98 H98        21.5118   -3.0229   -6.5329 H         1 UNK         0.0793 
     99 H99        22.8582   -3.2719   -4.4549 H         1 UNK         0.3024 
    100 H100       23.1247   -1.8353   -1.6371 H         1 UNK         0.1171 
    101 H101       23.0702   -4.3114   -1.2527 H         1 UNK         0.0786 
    102 H102       22.1490   -3.8639   -2.6695 H         1 UNK         0.0786 
    103 H103       23.7494   -4.5883   -2.8498 H         1 UNK         0.0786 
    104 H104       25.0356   -2.1282   -0.5289 H         1 UNK         0.2977 
    105 H105       25.3139    0.7070   -4.6470 H         1 UNK         0.3127 
    106 H106       24.9042    3.5232   -4.7375 H         1 UNK         0.0770 
    107 H107       23.2703    1.3165   -6.0985 H         1 UNK         0.0814 
    108 H108       22.7232    2.9435   -5.7326 H         1 UNK         0.0814 
    109 H109       23.0750    1.8272   -4.4215 H         1 UNK         0.0814 
    110 H110       25.5748    1.1453   -7.3593 H         1 UNK         0.2983 
    111 H111       25.6988    3.0858   -9.4813 H         1 UNK         0.0947 
    112 H112       26.8732    0.2600   -9.2472 H         1 UNK         0.0806 
    113 H113       26.7684    1.1916  -10.7368 H         1 UNK         0.0806 
    114 H114       25.3002    0.6785   -9.9188 H         1 UNK         0.0806 
    115 H115       28.1404    1.6171   -7.3568 H         1 UNK         0.3000 
    116 H116       30.1245    2.1276   -6.6440 H         1 UNK         0.0850 
    117 H117       29.4121    4.4866   -6.3604 H         1 UNK         0.0810 
    118 H118       29.9153    4.8635   -8.0076 H         1 UNK         0.0810 
    119 H119       31.1081    4.3880   -6.8093 H         1 UNK         0.0810 
    120 H120       29.7680    3.0664  -10.0425 H         1 UNK         0.3040 
    121 H121       32.4474    2.3988  -10.8796 H         1 UNK         0.0766 
    122 H122       31.4878    2.7556  -13.1611 H         1 UNK         0.0812 
    123 H123       31.0104    4.0501  -12.0773 H         1 UNK         0.0812 
    124 H124       29.8608    2.7774  -12.4926 H         1 UNK         0.0812 
    125 H125       30.0637    0.3229   -9.8543 H         1 UNK         0.3205 
    126 H126       30.2080   -1.8363  -11.7341 H         1 UNK         0.0754 
    127 H127       29.1016   -3.1123   -9.8923 H         1 UNK         0.0769 
    128 H128       28.3301   -1.5510  -10.1146 H         1 UNK         0.0769 
    129 H129       29.4410   -1.8070   -8.7657 H         1 UNK         0.0769 
    130 H130       32.5359   -0.7103   -9.4247 H         1 UNK         0.2981 
    131 H131       34.2426   -2.9589  -10.0382 H         1 UNK         0.0541 
    132 H132       36.5651   -2.4840   -8.9264 H         1 UNK         0.3459 
    133 H133       37.0722   -0.8424   -9.2235 H         1 UNK         0.3459 
    134 H134       33.1661   -3.7722   -7.9511 H         1 UNK         0.0612 
    135 H135       34.8697   -3.5310   -7.7635 H         1 UNK         0.0612 
    136 H136       31.2970   -1.6015   -6.7842 H         1 UNK         0.0624 
    137 H137       31.6305   -3.2427   -6.2756 H         1 UNK         0.0624 
@<TRIPOS>BOND
     1    1    2 1    
     2    1   72 1    
     3    1   73 1    
     4    1   74 1    
     5    2    3 2    
     6    2    4 am   BACKBONE|DICT|INTERRES
     7    4    5 1    
     8    4   75 1    
     9    5    6 1    
    10    5   35 1    
    11    5   76 1    
    12    6    7 1    
    13    6   77 1    
    14    6   78 1    
    15    7    8 1    
    16    8    9 1    
    17    8   79 1    
    18    8   80 1    
    19    9   10 ar   
    20    9   14 ar   
    21   10   11 ar   
    22   10   81 1    
    23   11   12 ar   
    24   11   71 1    
    25   12   13 ar   
    26   12   82 1    
    27   13   14 ar   
    28   13   15 1    
    29   14   83 1    
    30   15   16 1    
    31   15   84 1    
    32   15   85 1    
    33   16   17 1    
    34   17   18 1    
    35   17   86 1    
    36   17   87 1    
    37   18   19 1    
    38   18   37 1    
    39   18   88 1    
    40   19   20 am   BACKBONE|DICT|INTERRES
    41   19   89 1    
    42   20   21 2    
    43   20   22 1    
    44   22   23 1    
    45   22   24 1    
    46   22   90 1    
    47   23   91 1    
    48   23   92 1    
    49   23   93 1    
    50   24   25 am   BACKBONE|DICT|INTERRES
    51   24   94 1    
    52   25   26 2    
    53   25   27 1    
    54   27   28 1    
    55   27   29 1    
    56   27   95 1    
    57   28   96 1    
    58   28   97 1    
    59   28   98 1    
    60   29   30 am   BACKBONE|DICT|INTERRES
    61   29   99 1    
    62   30   31 2    
    63   30   32 1    
    64   32   33 1    
    65   32   34 1    
    66   32  100 1    
    67   33  101 1    
    68   33  102 1    
    69   33  103 1    
    70   34   35 am   BACKBONE|DICT|INTERRES
    71   34  104 1    
    72   35   36 2    
    73   37   38 2    
    74   37   39 am   BACKBONE|DICT|INTERRES
    75   39   40 1    
    76   39  105 1    
    77   40   41 1    
    78   40   42 1    
    79   40  106 1    
    80   41  107 1    
    81   41  108 1    
    82   41  109 1    
    83   42   43 2    
    84   42   44 am   BACKBONE|DICT|INTERRES
    85   44   45 1    
    86   44  110 1    
    87   45   46 1    
    88   45   47 1    
    89   45  111 1    
    90   46  112 1    
    91   46  113 1    
    92   46  114 1    
    93   47   48 2    
    94   47   49 am   BACKBONE|DICT|INTERRES
    95   49   50 1    
    96   49  115 1    
    97   50   51 1    
    98   50   52 1    
    99   50  116 1    
   100   51  117 1    
   101   51  118 1    
   102   51  119 1    
   103   52   53 2    
   104   52   54 am   BACKBONE|DICT|INTERRES
   105   54   55 1    
   106   54  120 1    
   107   55   56 1    
   108   55   57 1    
   109   55  121 1    
   110   56  122 1    
   111   56  123 1    
   112   56  124 1    
   113   57   58 2    
   114   57   59 am   BACKBONE|DICT|INTERRES
   115   59   60 1    
   116   59  125 1    
   117   60   61 1    
   118   60   62 1    
   119   60  126 1    
   120   61  127 1    
   121   61  128 1    
   122   61  129 1    
   123   62   63 2    
   124   62   64 am   BACKBONE|DICT|INTERRES
   125   64   65 1    
   126   64  130 1    
   127   65   66 1    
   128   65   69 1    
   129   65  131 1    
   130   66   67 am   BACKBONE|DICT|INTERRES
   131   66   68 2    
   132   67  132 1    
   133   67  133 1    
   134   69   70 1    
   135   69  134 1    
   136   69  135 1    
   137   70   71 1    
   138   71  136 1    
   139   71  137 1    
@<TRIPOS>SUBSTRUCTURE
     1 UNK         1 GROUP             0       ****    0 ROOT    
