@<TRIPOS>MOLECULE
3R137
137   139    1
SMALL
USER_CHARGES


@<TRIPOS>ATOM
      1 CA         24.4526   -5.1460   -2.3858 C.3       0 UNK        -0.2020 
      2 C          25.7384   -5.2541   -3.2023 C.2       0 UNK         0.4855 
      3 O          25.7370   -5.9178   -4.2364 O.2       0 UNK        -0.5197 
      4 N          26.8517   -4.6365   -2.7848 N.am      1 UNK        -0.4892 
      5 CA         26.9909   -3.7819   -1.5998 C.3       1 UNK         0.0835 
      6 C6         28.4610   -3.6683   -1.1212 C.3       12 UNK        -0.0855 
      7 S7         29.1960   -5.2944   -0.7185 S.3       12 UNK        -0.2931 
      8 C8         30.9884   -4.9990   -0.9526 C.3       12 UNK         0.0378 
      9 C9         31.3445   -4.4033   -2.3125 C.ar      12 UNK        -0.0802 
     10 C10        32.2623   -3.3481   -2.3940 C.ar      12 UNK        -0.0944 
     11 C11        32.5346   -2.7391   -3.6234 C.ar      12 UNK        -0.0787 
     12 C12        31.8874   -3.1947   -4.7716 C.ar      12 UNK        -0.0862 
     13 C13        30.9608   -4.2352   -4.7029 C.ar      12 UNK        -0.0733 
     14 C14        30.7223   -4.8626   -3.4792 C.ar      12 UNK        -0.0832 
     15 C15        30.1529   -4.6190   -5.9315 C.3       12 UNK         0.0240 
     16 S16        28.4459   -3.9899   -5.8033 S.3       12 UNK        -0.2522 
     17 C17        28.7039   -2.1914   -5.6045 C.3       12 UNK        -0.0967 
     18 CA         27.7062   -1.3755   -6.4531 C.3       5 UNK         0.0660 
     19 N          26.3258   -1.5261   -5.9800 N.am      5 UNK        -0.4015 
     20 C          25.2560   -1.3002   -6.7543 C.2       4 UNK         0.4946 
     21 O          25.3297   -0.9185   -7.9241 O.2       4 UNK        -0.5353 
     22 CA         23.8762   -1.5023   -6.1086 C.3       4 UNK         0.0277 
     23 CB         23.6551   -2.9724   -5.7168 C.3       4 UNK        -0.1981 
     24 N          23.6470   -0.6452   -4.9431 N.am      4 UNK        -0.4209 
     25 C          23.6489    0.6936   -4.9421 C.2       3 UNK         0.4942 
     26 O          23.9224    1.3765   -5.9262 O.2       3 UNK        -0.5208 
     27 CA         23.3152    1.4042   -3.6188 C.3       3 UNK         0.0250 
     28 CB         21.8127    1.3084   -3.2858 C.3       3 UNK        -0.1990 
     29 N          24.1624    0.9806   -2.4967 N.am      3 UNK        -0.4232 
     30 C          24.2099   -0.2168   -1.8980 C.2       2 UNK         0.4993 
     31 O          23.4492   -1.1551   -2.1526 O.2       2 UNK        -0.5286 
     32 CA         25.3165   -0.3933   -0.8453 C.3       2 UNK         0.0209 
     33 CB         24.7784   -0.0602    0.5559 C.3       2 UNK        -0.1931 
     34 N          25.8863   -1.7439   -0.8313 N.am      2 UNK        -0.4546 
     35 C          26.4213   -2.3790   -1.8841 C.2       1 UNK         0.5154 
     36 O          26.5004   -1.8984   -3.0206 O.2       1 UNK        -0.5181 
     37 C          28.1249    0.1061   -6.5594 C.2       5 UNK         0.5014 
     38 O          29.0368    0.4184   -7.3291 O.2       5 UNK        -0.5248 
     39 N          27.4389    0.9931   -5.8218 N.am      6 UNK        -0.4434 
     40 CA         27.5930    2.4452   -5.9138 C.3       6 UNK         0.0363 
     41 CB         26.9008    3.1266   -4.7228 C.3       6 UNK        -0.1936 
     42 C          27.0643    2.9895   -7.2507 C.2       6 UNK         0.5081 
     43 O          27.7676    3.7585   -7.9037 O.2       6 UNK        -0.5248 
     44 N          25.8687    2.5432   -7.6661 N.am      7 UNK        -0.4718 
     45 CA         25.2651    2.8624   -8.9654 C.3       7 UNK         0.0273 
     46 CB         23.8118    2.3644   -8.9990 C.3       7 UNK        -0.1935 
     47 C          26.0581    2.2900  -10.1519 C.2       7 UNK         0.5018 
     48 O          26.1268    2.9341  -11.1991 O.2       7 UNK        -0.5186 
     49 N          26.6742    1.1153   -9.9554 N.am      8 UNK        -0.4240 
     50 CA         27.6128    0.5016  -10.9000 C.3       8 UNK         0.0235 
     51 CB         27.8102   -0.9766  -10.5264 C.3       8 UNK        -0.2000 
     52 C          28.9771    1.2188  -10.9697 C.2       8 UNK         0.4941 
     53 O          29.7304    0.9603  -11.9092 O.2       8 UNK        -0.5273 
     54 N          29.2751    2.0815   -9.9838 N.am      9 UNK        -0.4262 
     55 CA         30.5216    2.8301   -9.7856 C.3       9 UNK         0.0264 
     56 CB         30.7065    3.8897  -10.8928 C.3       9 UNK        -0.1955 
     57 C          31.7470    1.9121   -9.6105 C.2       9 UNK         0.5031 
     58 O          32.8124    2.1912  -10.1658 O.2       9 UNK        -0.5390 
     59 N          31.5677    0.8207   -8.8554 N.am      10 UNK        -0.4204 
     60 CA         32.6089   -0.1676   -8.5748 C.3       10 UNK         0.0237 
     61 CB         31.9309   -1.5006   -8.2313 C.3       10 UNK        -0.1985 
     62 C          33.5528    0.2931   -7.4481 C.2       10 UNK         0.4970 
     63 O          33.1879    1.1592   -6.6487 O.2       10 UNK        -0.4914 
     64 N          34.7432   -0.3199   -7.4077 N.am      11 UNK        -0.4285 
     65 CA         35.8743    0.0091   -6.5194 C.3       11 UNK         0.1007 
     66 C          36.4866    1.4142   -6.8162 C.2       11 UNK         0.5703 
     67 N          37.2560    1.9889   -5.9001 N.am      11 UNK        -0.7361 
     68 O          36.3190    1.9727   -7.8993 O.2       11 UNK        -0.4986 
     69 C69        35.5890   -0.2438   -5.0061 C.3       12 UNK        -0.0947 
     70 S70        34.9763   -1.9262   -4.6524 S.3       12 UNK        -0.2240 
     71 C71        33.4621   -1.5385   -3.7222 C.3       12 UNK         0.0194 
     72 H72        23.6474   -5.6973   -2.8712 H         1 UNK         0.0906 
     73 H73        24.5853   -5.5679   -1.3902 H         1 UNK         0.0906 
     74 H74        24.1281   -4.1098   -2.2933 H         1 UNK         0.0906 
     75 H75        27.6673   -4.6748   -3.3795 H         1 UNK         0.3140 
     76 H76        26.4178   -4.2263   -0.7840 H         1 UNK         0.1085 
     77 H77        29.0588   -3.1627   -1.8810 H         1 UNK         0.0836 
     78 H78        28.5275   -3.0470   -0.2258 H         1 UNK         0.0836 
     79 H79        31.5203   -5.9435   -0.8327 H         1 UNK         0.0731 
     80 H80        31.3328   -4.3459   -0.1492 H         1 UNK         0.0731 
     81 H81        32.7414   -2.9798   -1.4970 H         1 UNK         0.1312 
     82 H82        32.0833   -2.7064   -5.7130 H         1 UNK         0.1406 
     83 H83        29.9993   -5.6651   -3.4259 H         1 UNK         0.1631 
     84 H84        30.1291   -5.7049   -6.0328 H         1 UNK         0.0717 
     85 H85        30.6142   -4.2321   -6.8417 H         1 UNK         0.0717 
     86 H86        28.6319   -1.9337   -4.5469 H         1 UNK         0.0934 
     87 H87        29.7226   -1.9505   -5.8991 H         1 UNK         0.0934 
     88 H88        27.7521   -1.7738   -7.4681 H         1 UNK         0.0739 
     89 H89        26.2079   -1.8114   -5.0114 H         1 UNK         0.3093 
     90 H90        23.1275   -1.2374   -6.8582 H         1 UNK         0.0818 
     91 H91        23.8374   -3.6366   -6.5629 H         1 UNK         0.0819 
     92 H92        24.3220   -3.2796   -4.9114 H         1 UNK         0.0819 
     93 H93        22.6311   -3.1444   -5.3850 H         1 UNK         0.0819 
     94 H94        23.4607   -1.1028   -4.0535 H         1 UNK         0.3041 
     95 H95        23.5385    2.4617   -3.7698 H         1 UNK         0.0784 
     96 H96        21.2110    1.7290   -4.0925 H         1 UNK         0.0793 
     97 H97        21.4835    0.2788   -3.1435 H         1 UNK         0.0793 
     98 H98        21.5726    1.8642   -2.3795 H         1 UNK         0.0793 
     99 H99        24.8327    1.6754   -2.1970 H         1 UNK         0.3024 
    100 H100       26.1323    0.2939   -1.0808 H         1 UNK         0.1171 
    101 H101       25.5649   -0.1148    1.3089 H         1 UNK         0.0786 
    102 H102       24.3708    0.9512    0.5901 H         1 UNK         0.0786 
    103 H103       23.9801   -0.7421    0.8525 H         1 UNK         0.0786 
    104 H104       25.8547   -2.2231    0.0568 H         1 UNK         0.2977 
    105 H105       26.7011    0.6462   -5.2276 H         1 UNK         0.3127 
    106 H106       28.6600    2.6733   -5.8595 H         1 UNK         0.0770 
    107 H107       27.2975    2.7671   -3.7733 H         1 UNK         0.0814 
    108 H108       25.8244    2.9587   -4.7254 H         1 UNK         0.0814 
    109 H109       27.0588    4.2056   -4.7510 H         1 UNK         0.0814 
    110 H110       25.3143    1.9524   -7.0493 H         1 UNK         0.2983 
    111 H111       25.2571    3.9494   -9.0714 H         1 UNK         0.0947 
    112 H112       23.3406    2.5919   -9.9561 H         1 UNK         0.0806 
    113 H113       23.2130    2.8396   -8.2219 H         1 UNK         0.0806 
    114 H114       23.7529    1.2850   -8.8518 H         1 UNK         0.0806 
    115 H115       26.4980    0.6198   -9.0890 H         1 UNK         0.3000 
    116 H116       27.1670    0.5460  -11.8961 H         1 UNK         0.0850 
    117 H117       28.3846   -1.4966  -11.2942 H         1 UNK         0.0810 
    118 H118       26.8576   -1.4972  -10.4244 H         1 UNK         0.0810 
    119 H119       28.3573   -1.0832   -9.5904 H         1 UNK         0.0810 
    120 H120       28.5822    2.2219   -9.2586 H         1 UNK         0.3040 
    121 H121       30.4075    3.3611   -8.8394 H         1 UNK         0.0766 
    122 H122       30.8765    3.4318  -11.8677 H         1 UNK         0.0812 
    123 H123       31.5630    4.5308  -10.6809 H         1 UNK         0.0812 
    124 H124       29.8314    4.5347  -10.9723 H         1 UNK         0.0812 
    125 H125       30.6756    0.6943   -8.3826 H         1 UNK         0.3205 
    126 H126       33.2049   -0.3118   -9.4788 H         1 UNK         0.0754 
    127 H127       32.6638   -2.2760   -8.0050 H         1 UNK         0.0769 
    128 H128       31.3234   -1.8610   -9.0620 H         1 UNK         0.0769 
    129 H129       31.2785   -1.3899   -7.3686 H         1 UNK         0.0769 
    130 H130       34.9476   -1.0119   -8.1134 H         1 UNK         0.2981 
    131 H131       36.6598   -0.6885   -6.8114 H         1 UNK         0.0541 
    132 H132       37.4318    1.5453   -5.0127 H         1 UNK         0.3459 
    133 H133       37.6682    2.8864   -6.1023 H         1 UNK         0.3459 
    134 H134       34.8872    0.4993   -4.6248 H         1 UNK         0.0612 
    135 H135       36.5011   -0.1218   -4.4206 H         1 UNK         0.0612 
    136 H136       33.7350   -1.1706   -2.7320 H         1 UNK         0.0624 
    137 H137       32.9263   -0.7284   -4.2201 H         1 UNK         0.0624 
@<TRIPOS>BOND
     1    1    2 1    
     2    1   72 1    
     3    1   73 1    
     4    1   74 1    
     5    2    3 2    
     6    2    4 am   BACKBONE|DICT|INTERRES
     7    4    5 1    
     8    4   75 1    
     9    5    6 1    
    10    5   35 1    
    11    5   76 1    
    12    6    7 1    
    13    6   77 1    
    14    6   78 1    
    15    7    8 1    
    16    8    9 1    
    17    8   79 1    
    18    8   80 1    
    19    9   10 ar   
    20    9   14 ar   
    21   10   11 ar   
    22   10   81 1    
    23   11   12 ar   
    24   11   71 1    
    25   12   13 ar   
    26   12   82 1    
    27   13   14 ar   
    28   13   15 1    
    29   14   83 1    
    30   15   16 1    
    31   15   84 1    
    32   15   85 1    
    33   16   17 1    
    34   17   18 1    
    35   17   86 1    
    36   17   87 1    
    37   18   19 1    
    38   18   37 1    
    39   18   88 1    
    40   19   20 am   BACKBONE|DICT|INTERRES
    41   19   89 1    
    42   20   21 2    
    43   20   22 1    
    44   22   23 1    
    45   22   24 1    
    46   22   90 1    
    47   23   91 1    
    48   23   92 1    
    49   23   93 1    
    50   24   25 am   BACKBONE|DICT|INTERRES
    51   24   94 1    
    52   25   26 2    
    53   25   27 1    
    54   27   28 1    
    55   27   29 1    
    56   27   95 1    
    57   28   96 1    
    58   28   97 1    
    59   28   98 1    
    60   29   30 am   BACKBONE|DICT|INTERRES
    61   29   99 1    
    62   30   31 2    
    63   30   32 1    
    64   32   33 1    
    65   32   34 1    
    66   32  100 1    
    67   33  101 1    
    68   33  102 1    
    69   33  103 1    
    70   34   35 am   BACKBONE|DICT|INTERRES
    71   34  104 1    
    72   35   36 2    
    73   37   38 2    
    74   37   39 am   BACKBONE|DICT|INTERRES
    75   39   40 1    
    76   39  105 1    
    77   40   41 1    
    78   40   42 1    
    79   40  106 1    
    80   41  107 1    
    81   41  108 1    
    82   41  109 1    
    83   42   43 2    
    84   42   44 am   BACKBONE|DICT|INTERRES
    85   44   45 1    
    86   44  110 1    
    87   45   46 1    
    88   45   47 1    
    89   45  111 1    
    90   46  112 1    
    91   46  113 1    
    92   46  114 1    
    93   47   48 2    
    94   47   49 am   BACKBONE|DICT|INTERRES
    95   49   50 1    
    96   49  115 1    
    97   50   51 1    
    98   50   52 1    
    99   50  116 1    
   100   51  117 1    
   101   51  118 1    
   102   51  119 1    
   103   52   53 2    
   104   52   54 am   BACKBONE|DICT|INTERRES
   105   54   55 1    
   106   54  120 1    
   107   55   56 1    
   108   55   57 1    
   109   55  121 1    
   110   56  122 1    
   111   56  123 1    
   112   56  124 1    
   113   57   58 2    
   114   57   59 am   BACKBONE|DICT|INTERRES
   115   59   60 1    
   116   59  125 1    
   117   60   61 1    
   118   60   62 1    
   119   60  126 1    
   120   61  127 1    
   121   61  128 1    
   122   61  129 1    
   123   62   63 2    
   124   62   64 am   BACKBONE|DICT|INTERRES
   125   64   65 1    
   126   64  130 1    
   127   65   66 1    
   128   65   69 1    
   129   65  131 1    
   130   66   67 am   BACKBONE|DICT|INTERRES
   131   66   68 2    
   132   67  132 1    
   133   67  133 1    
   134   69   70 1    
   135   69  134 1    
   136   69  135 1    
   137   70   71 1    
   138   71  136 1    
   139   71  137 1    
@<TRIPOS>SUBSTRUCTURE
     1 UNK         1 GROUP             0       ****    0 ROOT    
