@<TRIPOS>MOLECULE
3R137
137   139    1
SMALL
USER_CHARGES


@<TRIPOS>ATOM
      1 CA         25.2401   -6.3043   -6.3414 C.3       0 UNK        -0.2020 
      2 C          25.6120   -5.1678   -5.4033 C.2       0 UNK         0.4855 
      3 O          24.8630   -4.1954   -5.2979 O.2       0 UNK        -0.5197 
      4 N          26.7489   -5.2911   -4.7007 N.am      1 UNK        -0.4892 
      5 CA         27.3583   -4.2812   -3.8147 C.3       1 UNK         0.0835 
      6 C6         27.9897   -3.1056   -4.6135 C.3       12 UNK        -0.0855 
      7 S7         29.5421   -3.5889   -5.4392 S.3       12 UNK        -0.2931 
      8 C8         30.7489   -3.4122   -4.0816 C.3       12 UNK         0.0378 
      9 C9         30.9497   -1.9641   -3.6546 C.ar      12 UNK        -0.0802 
     10 C10        31.8280   -1.1378   -4.3616 C.ar      12 UNK        -0.0944 
     11 C11        32.0485    0.1839   -3.9553 C.ar      12 UNK        -0.0787 
     12 C12        31.3554    0.6817   -2.8495 C.ar      12 UNK        -0.0862 
     13 C13        30.4527   -0.1244   -2.1511 C.ar      12 UNK        -0.0733 
     14 C14        30.2697   -1.4527   -2.5441 C.ar      12 UNK        -0.0832 
     15 C15        29.6688    0.4510   -0.9816 C.3       12 UNK         0.0240 
     16 S16        28.5143    1.7532   -1.5220 S.3       12 UNK        -0.2522 
     17 C17        27.2882    0.8079   -2.4944 C.3       12 UNK        -0.0967 
     18 CA         27.4348    0.8924   -4.0396 C.3       5 UNK         0.0660 
     19 N          26.3841    0.0938   -4.6922 N.am      5 UNK        -0.4015 
     20 C          26.1722   -0.0251   -6.0125 C.2       4 UNK         0.4946 
     21 O          26.8983    0.4876   -6.8624 O.2       4 UNK        -0.5353 
     22 CA         24.9257   -0.7989   -6.4826 C.3       4 UNK         0.0277 
     23 CB         25.2575   -1.7911   -7.6102 C.3       4 UNK        -0.1981 
     24 N          24.2082   -1.5075   -5.4191 N.am      4 UNK        -0.4209 
     25 C          23.3031   -0.9457   -4.6062 C.2       3 UNK         0.4942 
     26 O          23.0912    0.2665   -4.5661 O.2       3 UNK        -0.5208 
     27 CA         22.5022   -1.8778   -3.6874 C.3       3 UNK         0.0250 
     28 CB         21.3548   -2.5423   -4.4666 C.3       3 UNK        -0.1990 
     29 N          23.3450   -2.9152   -3.0894 N.am      3 UNK        -0.4232 
     30 C          23.4614   -3.1381   -1.7719 C.2       2 UNK         0.4993 
     31 O          22.8579   -2.4959   -0.9112 O.2       2 UNK        -0.5286 
     32 CA         24.4016   -4.2735   -1.3204 C.3       2 UNK         0.0209 
     33 CB         23.5933   -5.5389   -0.9890 C.3       2 UNK        -0.1931 
     34 N          25.4363   -4.6114   -2.3011 N.am      2 UNK        -0.4546 
     35 C          26.4337   -3.7961   -2.6708 C.2       1 UNK         0.5154 
     36 O          26.6276   -2.7006   -2.1436 O.2       1 UNK        -0.5181 
     37 C          27.4596    2.3524   -4.5538 C.2       5 UNK         0.5014 
     38 O          28.5267    2.8726   -4.8846 O.2       5 UNK        -0.5248 
     39 N          26.2701    2.9605   -4.6803 N.am      6 UNK        -0.4434 
     40 CA         26.0669    4.3139   -5.2067 C.3       6 UNK         0.0363 
     41 CB         24.6129    4.7365   -4.9399 C.3       6 UNK        -0.1936 
     42 C          26.4052    4.4759   -6.7028 C.2       6 UNK         0.5081 
     43 O          26.6008    5.6067   -7.1487 O.2       6 UNK        -0.5248 
     44 N          26.4701    3.3657   -7.4496 N.am      7 UNK        -0.4718 
     45 CA         26.8217    3.3211   -8.8706 C.3       7 UNK         0.0273 
     46 CB         25.8434    2.3722   -9.5873 C.3       7 UNK        -0.1935 
     47 C          28.2809    2.8795   -9.0926 C.2       7 UNK         0.5018 
     48 O          28.6595    2.6360  -10.2397 O.2       7 UNK        -0.5186 
     49 N          29.0661    2.7483   -8.0111 N.am      8 UNK        -0.4240 
     50 CA         30.4570    2.2786   -7.9269 C.3       8 UNK         0.0235 
     51 CB         31.4151    3.1411   -8.7722 C.3       8 UNK        -0.2000 
     52 C          30.6348    0.7791   -8.2256 C.2       8 UNK         0.4941 
     53 O          31.3469    0.1078   -7.4798 O.2       8 UNK        -0.5273 
     54 N          29.9762    0.2798   -9.2808 N.am      9 UNK        -0.4262 
     55 CA         29.8495   -1.1229   -9.6873 C.3       9 UNK         0.0264 
     56 CB         28.8616   -1.8477   -8.7504 C.3       9 UNK        -0.1955 
     57 C          31.2032   -1.8439   -9.8222 C.2       9 UNK         0.5031 
     58 O          31.8189   -1.7744  -10.8870 O.2       9 UNK        -0.5390 
     59 N          31.6327   -2.5254   -8.7518 N.am      10 UNK        -0.4204 
     60 CA         32.9091   -3.2325   -8.6625 C.3       10 UNK         0.0237 
     61 CB         32.8852   -4.1612   -7.4382 C.3       10 UNK        -0.1985 
     62 C          34.1316   -2.2989   -8.6005 C.2       10 UNK         0.4970 
     63 O          35.2108   -2.7181   -9.0223 O.2       10 UNK        -0.4914 
     64 N          33.9664   -1.0776   -8.0724 N.am      11 UNK        -0.4285 
     65 CA         35.0393   -0.0751   -7.9933 C.3       11 UNK         0.1007 
     66 C          35.3092    0.5750   -9.3759 C.2       11 UNK         0.5703 
     67 N          36.5704    0.7597   -9.7425 N.am      11 UNK        -0.7361 
     68 O          34.3877    0.9544  -10.0958 O.2       11 UNK        -0.4986 
     69 C69        34.7605    1.0122   -6.9249 C.3       12 UNK        -0.0947 
     70 S70        34.5360    0.3168   -5.2515 S.3       12 UNK        -0.2240 
     71 C71        32.9760    1.1095   -4.7337 C.3       12 UNK         0.0194 
     72 H72        24.2777   -6.7271   -6.0544 H         1 UNK         0.0906 
     73 H73        25.1577   -5.9317   -7.3620 H         1 UNK         0.0906 
     74 H74        25.9809   -7.1034   -6.3301 H         1 UNK         0.0906 
     75 H75        27.3030   -6.1279   -4.8246 H         1 UNK         0.3140 
     76 H76        28.1620   -4.7975   -3.2884 H         1 UNK         0.1085 
     77 H77        28.1928   -2.2331   -3.9962 H         1 UNK         0.0836 
     78 H78        27.2958   -2.7508   -5.3738 H         1 UNK         0.0836 
     79 H79        31.7033   -3.8298   -4.4037 H         1 UNK         0.0731 
     80 H80        30.4351   -4.0187   -3.2313 H         1 UNK         0.0731 
     81 H81        32.3372   -1.5221   -5.2342 H         1 UNK         0.1312 
     82 H82        31.4932    1.7104   -2.5450 H         1 UNK         0.1406 
     83 H83        29.5805   -2.0832   -1.9981 H         1 UNK         0.1631 
     84 H84        30.3672    0.8762   -0.2595 H         1 UNK         0.0717 
     85 H85        29.1164   -0.3276   -0.4530 H         1 UNK         0.0717 
     86 H86        27.3341   -0.2344   -2.1801 H         1 UNK         0.0934 
     87 H87        26.2992    1.1583   -2.1933 H         1 UNK         0.0934 
     88 H88        28.3903    0.4411   -4.3165 H         1 UNK         0.0739 
     89 H89        25.7294   -0.3665   -4.0774 H         1 UNK         0.3093 
     90 H90        24.2489   -0.0527   -6.9048 H         1 UNK         0.0818 
     91 H91        26.0322   -2.4999   -7.3185 H         1 UNK         0.0819 
     92 H92        24.3786   -2.3625   -7.9089 H         1 UNK         0.0819 
     93 H93        25.6072   -1.2633   -8.4974 H         1 UNK         0.0819 
     94 H94        24.3577   -2.5159   -5.3849 H         1 UNK         0.3041 
     95 H95        22.0608   -1.2499   -2.9104 H         1 UNK         0.0784 
     96 H96        20.7142   -1.7939   -4.9354 H         1 UNK         0.0793 
     97 H97        21.7270   -3.1969   -5.2560 H         1 UNK         0.0793 
     98 H98        20.7252   -3.1397   -3.8070 H         1 UNK         0.0793 
     99 H99        23.8885   -3.4882   -3.7281 H         1 UNK         0.3024 
    100 H100       24.9000   -3.9331   -0.4096 H         1 UNK         0.1171 
    101 H101       24.2326   -6.3254   -0.5875 H         1 UNK         0.0786 
    102 H102       22.8306   -5.3294   -0.2373 H         1 UNK         0.0786 
    103 H103       23.0836   -5.9343   -1.8686 H         1 UNK         0.0786 
    104 H104       25.3432   -5.4939   -2.7834 H         1 UNK         0.2977 
    105 H105       25.4392    2.4521   -4.4123 H         1 UNK         0.3127 
    106 H106       26.7258    4.9872   -4.6542 H         1 UNK         0.0770 
    107 H107       23.9030    4.0846   -5.4508 H         1 UNK         0.0814 
    108 H108       24.4308    5.7536   -5.2901 H         1 UNK         0.0814 
    109 H109       24.3818    4.7180   -3.8747 H         1 UNK         0.0814 
    110 H110       26.3683    2.4608   -7.0016 H         1 UNK         0.2983 
    111 H111       26.7185    4.3127   -9.3164 H         1 UNK         0.0947 
    112 H112       26.0174    2.3687  -10.6641 H         1 UNK         0.0806 
    113 H113       24.8085    2.6764   -9.4303 H         1 UNK         0.0806 
    114 H114       25.9481    1.3444   -9.2383 H         1 UNK         0.0806 
    115 H115       28.6325    2.9179   -7.1106 H         1 UNK         0.3000 
    116 H116       30.7313    2.4187   -6.8808 H         1 UNK         0.0850 
    117 H117       32.4508    2.8395   -8.6156 H         1 UNK         0.0810 
    118 H118       31.3398    4.1951   -8.5052 H         1 UNK         0.0810 
    119 H119       31.2178    3.0496   -9.8404 H         1 UNK         0.0810 
    120 H120       29.4612    0.9533   -9.8421 H         1 UNK         0.3040 
    121 H121       29.4067   -1.1160  -10.6844 H         1 UNK         0.0766 
    122 H122       27.8639   -1.4284   -8.8614 H         1 UNK         0.0812 
    123 H123       29.1359   -1.7448   -7.7005 H         1 UNK         0.0812 
    124 H124       28.7930   -2.9119   -8.9798 H         1 UNK         0.0812 
    125 H125       31.0772   -2.4737   -7.9087 H         1 UNK         0.3205 
    126 H126       33.0123   -3.8503   -9.5571 H         1 UNK         0.0754 
    127 H127       33.7966   -4.7583   -7.3837 H         1 UNK         0.0769 
    128 H128       32.0449   -4.8548   -7.4782 H         1 UNK         0.0769 
    129 H129       32.8113   -3.5958   -6.5094 H         1 UNK         0.0769 
    130 H130       33.0392   -0.7670   -7.7937 H         1 UNK         0.2981 
    131 H131       35.9490   -0.5951   -7.6854 H         1 UNK         0.0541 
    132 H132       37.3338    0.4631   -9.1546 H         1 UNK         0.3459 
    133 H133       36.7626    1.1966  -10.6303 H         1 UNK         0.3459 
    134 H134       33.8898    1.6014   -7.2114 H         1 UNK         0.0612 
    135 H135       35.5945    1.7145   -6.8747 H         1 UNK         0.0612 
    136 H136       32.4238    1.4800   -5.5932 H         1 UNK         0.0624 
    137 H137       33.2307    1.9877   -4.1387 H         1 UNK         0.0624 
@<TRIPOS>BOND
     1    1    2 1    
     2    1   72 1    
     3    1   73 1    
     4    1   74 1    
     5    2    3 2    
     6    2    4 am   BACKBONE|DICT|INTERRES
     7    4    5 1    
     8    4   75 1    
     9    5    6 1    
    10    5   35 1    
    11    5   76 1    
    12    6    7 1    
    13    6   77 1    
    14    6   78 1    
    15    7    8 1    
    16    8    9 1    
    17    8   79 1    
    18    8   80 1    
    19    9   10 ar   
    20    9   14 ar   
    21   10   11 ar   
    22   10   81 1    
    23   11   12 ar   
    24   11   71 1    
    25   12   13 ar   
    26   12   82 1    
    27   13   14 ar   
    28   13   15 1    
    29   14   83 1    
    30   15   16 1    
    31   15   84 1    
    32   15   85 1    
    33   16   17 1    
    34   17   18 1    
    35   17   86 1    
    36   17   87 1    
    37   18   19 1    
    38   18   37 1    
    39   18   88 1    
    40   19   20 am   BACKBONE|DICT|INTERRES
    41   19   89 1    
    42   20   21 2    
    43   20   22 1    
    44   22   23 1    
    45   22   24 1    
    46   22   90 1    
    47   23   91 1    
    48   23   92 1    
    49   23   93 1    
    50   24   25 am   BACKBONE|DICT|INTERRES
    51   24   94 1    
    52   25   26 2    
    53   25   27 1    
    54   27   28 1    
    55   27   29 1    
    56   27   95 1    
    57   28   96 1    
    58   28   97 1    
    59   28   98 1    
    60   29   30 am   BACKBONE|DICT|INTERRES
    61   29   99 1    
    62   30   31 2    
    63   30   32 1    
    64   32   33 1    
    65   32   34 1    
    66   32  100 1    
    67   33  101 1    
    68   33  102 1    
    69   33  103 1    
    70   34   35 am   BACKBONE|DICT|INTERRES
    71   34  104 1    
    72   35   36 2    
    73   37   38 2    
    74   37   39 am   BACKBONE|DICT|INTERRES
    75   39   40 1    
    76   39  105 1    
    77   40   41 1    
    78   40   42 1    
    79   40  106 1    
    80   41  107 1    
    81   41  108 1    
    82   41  109 1    
    83   42   43 2    
    84   42   44 am   BACKBONE|DICT|INTERRES
    85   44   45 1    
    86   44  110 1    
    87   45   46 1    
    88   45   47 1    
    89   45  111 1    
    90   46  112 1    
    91   46  113 1    
    92   46  114 1    
    93   47   48 2    
    94   47   49 am   BACKBONE|DICT|INTERRES
    95   49   50 1    
    96   49  115 1    
    97   50   51 1    
    98   50   52 1    
    99   50  116 1    
   100   51  117 1    
   101   51  118 1    
   102   51  119 1    
   103   52   53 2    
   104   52   54 am   BACKBONE|DICT|INTERRES
   105   54   55 1    
   106   54  120 1    
   107   55   56 1    
   108   55   57 1    
   109   55  121 1    
   110   56  122 1    
   111   56  123 1    
   112   56  124 1    
   113   57   58 2    
   114   57   59 am   BACKBONE|DICT|INTERRES
   115   59   60 1    
   116   59  125 1    
   117   60   61 1    
   118   60   62 1    
   119   60  126 1    
   120   61  127 1    
   121   61  128 1    
   122   61  129 1    
   123   62   63 2    
   124   62   64 am   BACKBONE|DICT|INTERRES
   125   64   65 1    
   126   64  130 1    
   127   65   66 1    
   128   65   69 1    
   129   65  131 1    
   130   66   67 am   BACKBONE|DICT|INTERRES
   131   66   68 2    
   132   67  132 1    
   133   67  133 1    
   134   69   70 1    
   135   69  134 1    
   136   69  135 1    
   137   70   71 1    
   138   71  136 1    
   139   71  137 1    
@<TRIPOS>SUBSTRUCTURE
     1 UNK         1 GROUP             0       ****    0 ROOT    
