@<TRIPOS>MOLECULE
3R137
137   139    1
SMALL
USER_CHARGES


@<TRIPOS>ATOM
      1 CA         27.3418   -3.5111    3.8374 C.3       0 UNK        -0.2020 
      2 C          27.8112   -2.4759    2.8264 C.2       0 UNK         0.4855 
      3 O          27.8920   -1.2916    3.1544 O.2       0 UNK        -0.5197 
      4 N          28.1311   -2.9143    1.6038 N.am      1 UNK        -0.4892 
      5 CA         28.5225   -2.0589    0.4796 C.3       1 UNK         0.0835 
      6 C6         29.3384   -2.8382   -0.5831 C.3       12 UNK        -0.0855 
      7 S7         28.5770   -4.4018   -1.1439 S.3       12 UNK        -0.2931 
      8 C8         29.9855   -5.1746   -2.0009 C.3       12 UNK         0.0378 
      9 C9         30.2448   -4.5163   -3.3476 C.ar      12 UNK        -0.0802 
     10 C10        31.1117   -3.4231   -3.4485 C.ar      12 UNK        -0.0944 
     11 C11        31.3386   -2.7958   -4.6769 C.ar      12 UNK        -0.0787 
     12 C12        30.6816   -3.2913   -5.8129 C.ar      12 UNK        -0.0862 
     13 C13        29.8245   -4.3923   -5.7339 C.ar      12 UNK        -0.0733 
     14 C14        29.6146   -5.0043   -4.4953 C.ar      12 UNK        -0.0832 
     15 C15        29.1690   -4.9248   -7.0064 C.3       12 UNK         0.0240 
     16 S16        27.4024   -5.3593   -6.8394 S.3       12 UNK        -0.2522 
     17 C17        26.6462   -3.8394   -6.1736 C.3       12 UNK        -0.0967 
     18 CA         26.4422   -2.7265   -7.2396 C.3       5 UNK         0.0660 
     19 N          25.1737   -2.0173   -7.0503 N.am      5 UNK        -0.4015 
     20 C          24.6819   -1.0513   -7.8414 C.2       4 UNK         0.4946 
     21 O          25.2443   -0.6318   -8.8505 O.2       4 UNK        -0.5353 
     22 CA         23.3387   -0.4251   -7.4287 C.3       4 UNK         0.0277 
     23 CB         22.1772   -1.1196   -8.1567 C.3       4 UNK        -0.1981 
     24 N          23.1033   -0.4613   -5.9830 N.am      4 UNK        -0.4209 
     25 C          23.8415    0.1959   -5.0780 C.2       3 UNK         0.4942 
     26 O          24.7605    0.9614   -5.3826 O.2       3 UNK        -0.5208 
     27 CA         23.4763   -0.0446   -3.5984 C.3       3 UNK         0.0250 
     28 CB         23.1013   -1.5151   -3.3001 C.3       3 UNK        -0.1990 
     29 N          24.5171    0.4107   -2.6701 N.am      3 UNK        -0.4232 
     30 C          25.7820   -0.0272   -2.5752 C.2       2 UNK         0.4993 
     31 O          26.2642   -0.9143   -3.2868 O.2       2 UNK        -0.5286 
     32 CA         26.6736    0.6781   -1.5287 C.3       2 UNK         0.0209 
     33 CB         25.8912    1.4934   -0.4709 C.3       2 UNK        -0.1931 
     34 N          27.6139   -0.2351   -0.8682 N.am      2 UNK        -0.4546 
     35 C          27.3135   -1.3176   -0.1338 C.2       1 UNK         0.5154 
     36 O          26.1640   -1.7189    0.0741 O.2       1 UNK        -0.5181 
     37 C          27.6356   -1.7537   -7.2751 C.2       5 UNK         0.5014 
     38 O          28.3434   -1.6889   -8.2825 O.2       5 UNK        -0.5248 
     39 N          27.8121   -0.9913   -6.1858 N.am      6 UNK        -0.4434 
     40 CA         28.8985   -0.0232   -6.0384 C.3       6 UNK         0.0363 
     41 CB         28.9673    0.4413   -4.5789 C.3       6 UNK        -0.1936 
     42 C          28.7696    1.1728   -6.9925 C.2       6 UNK         0.5081 
     43 O          29.7918    1.7233   -7.4015 O.2       6 UNK        -0.5248 
     44 N          27.5305    1.5407   -7.3473 N.am      7 UNK        -0.4718 
     45 CA         27.2330    2.5766   -8.3351 C.3       7 UNK         0.0273 
     46 CB         25.7459    2.9562   -8.2614 C.3       7 UNK        -0.1935 
     47 C          27.6278    2.1504   -9.7582 C.2       7 UNK         0.5018 
     48 O          28.3131    2.9105  -10.4419 O.2       7 UNK        -0.5186 
     49 N          27.2147    0.9427  -10.1709 N.am      8 UNK        -0.4240 
     50 CA         27.5064    0.3708  -11.4882 C.3       8 UNK         0.0235 
     51 CB         26.6534   -0.8874  -11.7118 C.3       8 UNK        -0.2000 
     52 C          28.9955    0.0539  -11.6897 C.2       8 UNK         0.4941 
     53 O          29.5320    0.3353  -12.7620 O.2       8 UNK        -0.5273 
     54 N          29.6400   -0.5069  -10.6573 N.am      9 UNK        -0.4262 
     55 CA         31.0735   -0.8137  -10.6533 C.3       9 UNK         0.0264 
     56 CB         31.3446   -1.8745   -9.5793 C.3       9 UNK        -0.1955 
     57 C          31.9707    0.4215  -10.4388 C.2       9 UNK         0.5031 
     58 O          33.1759    0.3272  -10.6735 O.2       9 UNK        -0.5390 
     59 N          31.3809    1.5395   -9.9890 N.am      10 UNK        -0.4204 
     60 CA         31.9954    2.8415   -9.6950 C.3       10 UNK         0.0237 
     61 CB         32.6507    3.4501  -10.9531 C.3       10 UNK        -0.1985 
     62 C          32.9384    2.8520   -8.4734 C.2       10 UNK         0.4970 
     63 O          33.6351    3.8466   -8.2631 O.2       10 UNK        -0.4914 
     64 N          32.9270    1.7798   -7.6728 N.am      11 UNK        -0.4285 
     65 CA         33.6136    1.6766   -6.3760 C.3       11 UNK         0.1007 
     66 C          32.8546    2.3511   -5.1977 C.2       11 UNK         0.5703 
     67 N          31.6150    2.7941   -5.3672 N.am      11 UNK        -0.7361 
     68 O          33.4150    2.5015   -4.1148 O.2       11 UNK        -0.4986 
     69 C69        34.0536    0.2203   -6.0539 C.3       12 UNK        -0.0947 
     70 S70        32.7897   -1.0525   -6.3881 S.3       12 UNK        -0.2240 
     71 C71        32.2910   -1.5932   -4.7166 C.3       12 UNK         0.0194 
     72 H72        27.3081   -4.5134    3.4097 H         1 UNK         0.0906 
     73 H73        28.0149   -3.5306    4.6946 H         1 UNK         0.0906 
     74 H74        26.3423   -3.2607    4.1932 H         1 UNK         0.0906 
     75 H75        28.0127   -3.8905    1.3703 H         1 UNK         0.3140 
     76 H76        29.1802   -1.2845    0.8814 H         1 UNK         0.1085 
     77 H77        29.5359   -2.2115   -1.4541 H         1 UNK         0.0836 
     78 H78        30.3177   -3.0744   -0.1638 H         1 UNK         0.0836 
     79 H79        30.8767   -5.1288   -1.3730 H         1 UNK         0.0731 
     80 H80        29.7707   -6.2348   -2.1420 H         1 UNK         0.0731 
     81 H81        31.6082   -3.0527   -2.5620 H         1 UNK         0.1312 
     82 H82        30.8318   -2.8304   -6.7757 H         1 UNK         0.1406 
     83 H83        28.9530   -5.8568   -4.4226 H         1 UNK         0.1631 
     84 H84        29.7118   -5.8165   -7.3219 H         1 UNK         0.0717 
     85 H85        29.2708   -4.2087   -7.8228 H         1 UNK         0.0717 
     86 H86        27.2014   -3.4953   -5.2983 H         1 UNK         0.0934 
     87 H87        25.6800   -4.1549   -5.7767 H         1 UNK         0.0934 
     88 H88        26.3758   -3.1911   -8.2258 H         1 UNK         0.0739 
     89 H89        24.6348   -2.2744   -6.2381 H         1 UNK         0.3093 
     90 H90        23.3562    0.6218   -7.7373 H         1 UNK         0.0818 
     91 H91        21.2256   -0.6333   -7.9416 H         1 UNK         0.0819 
     92 H92        22.3191   -1.0833   -9.2380 H         1 UNK         0.0819 
     93 H93        22.0906   -2.1697   -7.8752 H         1 UNK         0.0819 
     94 H94        22.3458   -1.0455   -5.6591 H         1 UNK         0.3041 
     95 H95        22.6004    0.5734   -3.3961 H         1 UNK         0.0784 
     96 H96        22.1864   -1.8125   -3.8128 H         1 UNK         0.0793 
     97 H97        23.8901   -2.2053   -3.6017 H         1 UNK         0.0793 
     98 H98        22.9248   -1.6659   -2.2349 H         1 UNK         0.0793 
     99 H99        24.2453    1.1690   -2.0610 H         1 UNK         0.3024 
    100 H100       27.2842    1.3846   -2.0919 H         1 UNK         0.1171 
    101 H101       26.5680    1.9377    0.2594 H         1 UNK         0.0786 
    102 H102       25.1794    0.8747    0.0773 H         1 UNK         0.0786 
    103 H103       25.3399    2.3175   -0.9251 H         1 UNK         0.0786 
    104 H104       28.5896   -0.0129   -1.0050 H         1 UNK         0.2977 
    105 H105       27.1762   -1.0808   -5.4008 H         1 UNK         0.3127 
    106 H106       29.8324   -0.5316   -6.2794 H         1 UNK         0.0770 
    107 H107       28.0973    1.0409   -4.3144 H         1 UNK         0.0814 
    108 H108       29.8512    1.0503   -4.4013 H         1 UNK         0.0814 
    109 H109       29.0187   -0.4055   -3.8943 H         1 UNK         0.0814 
    110 H110       26.7446    1.0464   -6.9457 H         1 UNK         0.2983 
    111 H111       27.8203    3.4614   -8.0793 H         1 UNK         0.0947 
    112 H112       25.5169    3.7680   -8.9527 H         1 UNK         0.0806 
    113 H113       25.4716    3.2933   -7.2616 H         1 UNK         0.0806 
    114 H114       25.0996    2.1179   -8.5192 H         1 UNK         0.0806 
    115 H115       26.6269    0.3813   -9.5565 H         1 UNK         0.3000 
    116 H116       27.2227    1.1097  -12.2400 H         1 UNK         0.0850 
    117 H117       26.8478   -1.3239  -12.6920 H         1 UNK         0.0810 
    118 H118       25.5890   -0.6573  -11.6641 H         1 UNK         0.0810 
    119 H119       26.8622   -1.6531  -10.9638 H         1 UNK         0.0810 
    120 H120       29.1134   -0.7627   -9.8242 H         1 UNK         0.3040 
    121 H121       31.3412   -1.2401  -11.6225 H         1 UNK         0.0766 
    122 H122       32.4062   -2.1177   -9.5154 H         1 UNK         0.0812 
    123 H123       31.0254   -1.5194   -8.6015 H         1 UNK         0.0812 
    124 H124       30.8081   -2.7999   -9.7889 H         1 UNK         0.0812 
    125 H125       30.3899    1.4908   -9.7897 H         1 UNK         0.3205 
    126 H126       31.1625    3.4904   -9.4199 H         1 UNK         0.0754 
    127 H127       32.9507    4.4839  -10.7780 H         1 UNK         0.0769 
    128 H128       31.9596    3.4542  -11.7961 H         1 UNK         0.0769 
    129 H129       33.5438    2.9013  -11.2525 H         1 UNK         0.0769 
    130 H130       32.2963    1.0232   -7.8927 H         1 UNK         0.2981 
    131 H131       34.5378    2.2515   -6.4591 H         1 UNK         0.0541 
    132 H132       31.1151    2.6105   -6.2302 H         1 UNK         0.3459 
    133 H133       31.1505    3.2558   -4.6029 H         1 UNK         0.3459 
    134 H134       34.4148    0.1283   -5.0283 H         1 UNK         0.0612 
    135 H135       34.9112   -0.0285   -6.6802 H         1 UNK         0.0612 
    136 H136       33.1937   -1.8419   -4.1552 H         1 UNK         0.0624 
    137 H137       31.8214   -0.7520   -4.2035 H         1 UNK         0.0624 
@<TRIPOS>BOND
     1    1    2 1    
     2    1   72 1    
     3    1   73 1    
     4    1   74 1    
     5    2    3 2    
     6    2    4 am   BACKBONE|DICT|INTERRES
     7    4    5 1    
     8    4   75 1    
     9    5    6 1    
    10    5   35 1    
    11    5   76 1    
    12    6    7 1    
    13    6   77 1    
    14    6   78 1    
    15    7    8 1    
    16    8    9 1    
    17    8   79 1    
    18    8   80 1    
    19    9   10 ar   
    20    9   14 ar   
    21   10   11 ar   
    22   10   81 1    
    23   11   12 ar   
    24   11   71 1    
    25   12   13 ar   
    26   12   82 1    
    27   13   14 ar   
    28   13   15 1    
    29   14   83 1    
    30   15   16 1    
    31   15   84 1    
    32   15   85 1    
    33   16   17 1    
    34   17   18 1    
    35   17   86 1    
    36   17   87 1    
    37   18   19 1    
    38   18   37 1    
    39   18   88 1    
    40   19   20 am   BACKBONE|DICT|INTERRES
    41   19   89 1    
    42   20   21 2    
    43   20   22 1    
    44   22   23 1    
    45   22   24 1    
    46   22   90 1    
    47   23   91 1    
    48   23   92 1    
    49   23   93 1    
    50   24   25 am   BACKBONE|DICT|INTERRES
    51   24   94 1    
    52   25   26 2    
    53   25   27 1    
    54   27   28 1    
    55   27   29 1    
    56   27   95 1    
    57   28   96 1    
    58   28   97 1    
    59   28   98 1    
    60   29   30 am   BACKBONE|DICT|INTERRES
    61   29   99 1    
    62   30   31 2    
    63   30   32 1    
    64   32   33 1    
    65   32   34 1    
    66   32  100 1    
    67   33  101 1    
    68   33  102 1    
    69   33  103 1    
    70   34   35 am   BACKBONE|DICT|INTERRES
    71   34  104 1    
    72   35   36 2    
    73   37   38 2    
    74   37   39 am   BACKBONE|DICT|INTERRES
    75   39   40 1    
    76   39  105 1    
    77   40   41 1    
    78   40   42 1    
    79   40  106 1    
    80   41  107 1    
    81   41  108 1    
    82   41  109 1    
    83   42   43 2    
    84   42   44 am   BACKBONE|DICT|INTERRES
    85   44   45 1    
    86   44  110 1    
    87   45   46 1    
    88   45   47 1    
    89   45  111 1    
    90   46  112 1    
    91   46  113 1    
    92   46  114 1    
    93   47   48 2    
    94   47   49 am   BACKBONE|DICT|INTERRES
    95   49   50 1    
    96   49  115 1    
    97   50   51 1    
    98   50   52 1    
    99   50  116 1    
   100   51  117 1    
   101   51  118 1    
   102   51  119 1    
   103   52   53 2    
   104   52   54 am   BACKBONE|DICT|INTERRES
   105   54   55 1    
   106   54  120 1    
   107   55   56 1    
   108   55   57 1    
   109   55  121 1    
   110   56  122 1    
   111   56  123 1    
   112   56  124 1    
   113   57   58 2    
   114   57   59 am   BACKBONE|DICT|INTERRES
   115   59   60 1    
   116   59  125 1    
   117   60   61 1    
   118   60   62 1    
   119   60  126 1    
   120   61  127 1    
   121   61  128 1    
   122   61  129 1    
   123   62   63 2    
   124   62   64 am   BACKBONE|DICT|INTERRES
   125   64   65 1    
   126   64  130 1    
   127   65   66 1    
   128   65   69 1    
   129   65  131 1    
   130   66   67 am   BACKBONE|DICT|INTERRES
   131   66   68 2    
   132   67  132 1    
   133   67  133 1    
   134   69   70 1    
   135   69  134 1    
   136   69  135 1    
   137   70   71 1    
   138   71  136 1    
   139   71  137 1    
@<TRIPOS>SUBSTRUCTURE
     1 UNK         1 GROUP             0       ****    0 ROOT    
