@<TRIPOS>MOLECULE
3R137
137   139    1
SMALL
USER_CHARGES


@<TRIPOS>ATOM
      1 CA         27.7355   -2.6028    3.3904 C.3       0 UNK        -0.2020 
      2 C          28.1331   -1.7591    2.1887 C.2       0 UNK         0.4855 
      3 O          28.5640   -0.6183    2.3573 O.2       0 UNK        -0.5197 
      4 N          27.9896   -2.3098    0.9758 N.am      1 UNK        -0.4892 
      5 CA         28.3425   -1.6529   -0.2933 C.3       1 UNK         0.0835 
      6 C6         28.5099   -2.6761   -1.4471 C.3       12 UNK        -0.0855 
      7 S7         29.7823   -3.9259   -1.0625 S.3       12 UNK        -0.2931 
      8 C8         29.6259   -5.0698   -2.4762 C.3       12 UNK         0.0378 
      9 C9         30.1762   -4.5208   -3.7915 C.ar      12 UNK        -0.0802 
     10 C10        31.3763   -3.8007   -3.8320 C.ar      12 UNK        -0.0944 
     11 C11        31.8953   -3.3433   -5.0460 C.ar      12 UNK        -0.0787 
     12 C12        31.2004   -3.6111   -6.2286 C.ar      12 UNK        -0.0862 
     13 C13        30.0098   -4.3467   -6.2162 C.ar      12 UNK        -0.0733 
     14 C14        29.5093   -4.8028   -4.9892 C.ar      12 UNK        -0.0832 
     15 C15        29.3538   -4.6743   -7.5612 C.3       12 UNK         0.0240 
     16 S16        27.6158   -5.2499   -7.5388 S.3       12 UNK        -0.2522 
     17 C17        26.6894   -3.9010   -6.7317 C.3       12 UNK        -0.0967 
     18 CA         26.4172   -2.6638   -7.6323 C.3       5 UNK         0.0660 
     19 N          25.1311   -2.0475   -7.2917 N.am      5 UNK        -0.4015 
     20 C          24.6511   -0.8720   -7.7245 C.2       4 UNK         0.4946 
     21 O          25.1571   -0.2108   -8.6314 O.2       4 UNK        -0.5353 
     22 CA         23.4358   -0.2990   -6.9688 C.3       4 UNK         0.0277 
     23 CB         22.1587   -0.4669   -7.8071 C.3       4 UNK        -0.1981 
     24 N          23.2154   -0.8624   -5.6262 N.am      4 UNK        -0.4209 
     25 C          24.0962   -0.8592   -4.6129 C.2       3 UNK         0.4942 
     26 O          25.2435   -0.4139   -4.6988 O.2       3 UNK        -0.5208 
     27 CA         23.6439   -1.5708   -3.3273 C.3       3 UNK         0.0250 
     28 CB         23.8717   -3.0871   -3.4567 C.3       3 UNK        -0.1990 
     29 N          24.3569   -1.0932   -2.1422 N.am      3 UNK        -0.4232 
     30 C          24.2272    0.1230   -1.5950 C.2       2 UNK         0.4993 
     31 O          23.4490    0.9814   -2.0143 O.2       2 UNK        -0.5286 
     32 CA         25.0777    0.4285   -0.3478 C.3       2 UNK         0.0209 
     33 CB         24.1875    0.5077    0.9046 C.3       2 UNK        -0.1931 
     34 N          26.1371   -0.5580   -0.1079 N.am      2 UNK        -0.4546 
     35 C          27.3477   -0.5367   -0.6849 C.2       1 UNK         0.5154 
     36 O          27.6951    0.3247   -1.4916 O.2       1 UNK        -0.5181 
     37 C          27.5821   -1.6599   -7.5186 C.2       5 UNK         0.5014 
     38 O          28.3720   -1.5358   -8.4542 O.2       5 UNK        -0.5248 
     39 N          27.6413   -0.9359   -6.3900 N.am      6 UNK        -0.4434 
     40 CA         28.6940    0.0334   -6.0980 C.3       6 UNK         0.0363 
     41 CB         28.5890    0.4937   -4.6380 C.3       6 UNK        -0.1936 
     42 C          28.6836    1.2349   -7.0504 C.2       6 UNK         0.5081 
     43 O          29.7531    1.6818   -7.4627 O.2       6 UNK        -0.5248 
     44 N          27.4836    1.7093   -7.4094 N.am      7 UNK        -0.4718 
     45 CA         27.2817    2.7815   -8.3839 C.3       7 UNK         0.0273 
     46 CB         25.8323    3.2879   -8.3067 C.3       7 UNK        -0.1935 
     47 C          27.6361    2.3375   -9.8118 C.2       7 UNK         0.5018 
     48 O          28.2883    3.0936  -10.5316 O.2       7 UNK        -0.5186 
     49 N          27.2247    1.1163  -10.1828 N.am      8 UNK        -0.4240 
     50 CA         27.5054    0.4987  -11.4805 C.3       8 UNK         0.0235 
     51 CB         26.6754   -0.7870  -11.6286 C.3       8 UNK        -0.2000 
     52 C          29.0004    0.2124  -11.7000 C.2       8 UNK         0.4941 
     53 O          29.5211    0.5131  -12.7749 O.2       8 UNK        -0.5273 
     54 N          29.6634   -0.3542  -10.6829 N.am      9 UNK        -0.4262 
     55 CA         31.0885   -0.6939  -10.7126 C.3       9 UNK         0.0264 
     56 CB         31.3645   -1.7735   -9.6540 C.3       9 UNK        -0.1955 
     57 C          32.0228    0.5072  -10.4867 C.2       9 UNK         0.5031 
     58 O          33.2119    0.3888  -10.7861 O.2       9 UNK        -0.5390 
     59 N          31.4921    1.6089   -9.9324 N.am      10 UNK        -0.4204 
     60 CA         32.2171    2.7772   -9.4135 C.3       10 UNK         0.0237 
     61 CB         32.9335    3.5492  -10.5424 C.3       10 UNK        -0.1985 
     62 C          33.1467    2.3813   -8.2479 C.2       10 UNK         0.4970 
     63 O          34.3306    2.7245   -8.2433 O.2       10 UNK        -0.4914 
     64 N          32.5796    1.6272   -7.2992 N.am      11 UNK        -0.4285 
     65 CA         33.2386    1.1135   -6.0940 C.3       11 UNK         0.1007 
     66 C          33.6179    2.2563   -5.1113 C.2       11 UNK         0.5703 
     67 N          34.8089    2.2120   -4.5296 N.am      11 UNK        -0.7361 
     68 O          32.8300    3.1647   -4.8526 O.2       11 UNK        -0.4986 
     69 C69        32.3431    0.0373   -5.4268 C.3       12 UNK        -0.0947 
     70 S70        33.2237   -1.0197   -4.2320 S.3       12 UNK        -0.2240 
     71 C71        33.2428   -2.6289   -5.0854 C.3       12 UNK         0.0194 
     72 H72        26.9453   -2.1061    3.9529 H         1 UNK         0.0906 
     73 H73        27.3748   -3.5884    3.0965 H         1 UNK         0.0906 
     74 H74        28.5906   -2.7389    4.0519 H         1 UNK         0.0906 
     75 H75        27.6664   -3.2642    0.8969 H         1 UNK         0.3140 
     76 H76        29.3065   -1.1586   -0.1508 H         1 UNK         0.1085 
     77 H77        27.5657   -3.1824   -1.6567 H         1 UNK         0.0836 
     78 H78        28.8035   -2.1726   -2.3703 H         1 UNK         0.0836 
     79 H79        28.5773   -5.3524   -2.5827 H         1 UNK         0.0731 
     80 H80        30.1674   -5.9862   -2.2382 H         1 UNK         0.0731 
     81 H81        31.9219   -3.6086   -2.9184 H         1 UNK         0.1312 
     82 H82        31.6107   -3.2789   -7.1717 H         1 UNK         0.1406 
     83 H83        28.6096   -5.4009   -4.9612 H         1 UNK         0.1631 
     84 H84        29.9478   -5.4582   -8.0326 H         1 UNK         0.0717 
     85 H85        29.4264   -3.8172   -8.2271 H         1 UNK         0.0717 
     86 H86        25.7414   -4.3569   -6.4411 H         1 UNK         0.0934 
     87 H87        27.1600   -3.6272   -5.7859 H         1 UNK         0.0934 
     88 H88        26.3435   -2.9799   -8.6747 H         1 UNK         0.0739 
     89 H89        24.6102   -2.5008   -6.5575 H         1 UNK         0.3093 
     90 H90        23.6224    0.7694   -6.8413 H         1 UNK         0.0818 
     91 H91        21.3090    0.0344   -7.3433 H         1 UNK         0.0819 
     92 H92        22.2836   -0.0325   -8.8003 H         1 UNK         0.0819 
     93 H93        21.8985   -1.5175   -7.9420 H         1 UNK         0.0819 
     94 H94        22.3057   -1.2715   -5.4643 H         1 UNK         0.3041 
     95 H95        22.5783   -1.3817   -3.1799 H         1 UNK         0.0784 
     96 H96        23.3176   -3.5007   -4.3003 H         1 UNK         0.0793 
     97 H97        24.9254   -3.3265   -3.6088 H         1 UNK         0.0793 
     98 H98        23.5342   -3.6160   -2.5650 H         1 UNK         0.0793 
     99 H99        25.0377   -1.7181   -1.7398 H         1 UNK         0.3024 
    100 H100       25.5340    1.4088   -0.5050 H         1 UNK         0.1171 
    101 H101       24.7671    0.7833    1.7860 H         1 UNK         0.0786 
    102 H102       23.4081    1.2616    0.7839 H         1 UNK         0.0786 
    103 H103       23.6926   -0.4423    1.1103 H         1 UNK         0.0786 
    104 H104       25.9440   -1.2883    0.5627 H         1 UNK         0.2977 
    105 H105       26.8920   -1.0094   -5.7078 H         1 UNK         0.3127 
    106 H106       29.6454   -0.4817   -6.2290 H         1 UNK         0.0770 
    107 H107       27.6085    0.9149   -4.4133 H         1 UNK         0.0814 
    108 H108       29.3282    1.2618   -4.4081 H         1 UNK         0.0814 
    109 H109       28.7615   -0.3357   -3.9533 H         1 UNK         0.0814 
    110 H110       26.6584    1.2502   -7.0509 H         1 UNK         0.2983 
    111 H111       27.9457    3.6080   -8.1199 H         1 UNK         0.0947 
    112 H112       25.6708    4.1100   -9.0052 H         1 UNK         0.0806 
    113 H113       25.5946    3.6596   -7.3098 H         1 UNK         0.0806 
    114 H114       25.1132    2.5062   -8.5536 H         1 UNK         0.0806 
    115 H115       26.6507    0.5801   -9.5355 H         1 UNK         0.3000 
    116 H116       27.1865    1.1992  -12.2553 H         1 UNK         0.0850 
    117 H117       26.8503   -1.2566  -12.5974 H         1 UNK         0.0810 
    118 H118       25.6077   -0.5788  -11.5559 H         1 UNK         0.0810 
    119 H119       26.9235   -1.5194  -10.8596 H         1 UNK         0.0810 
    120 H120       29.1458   -0.6309   -9.8486 H         1 UNK         0.3040 
    121 H121       31.3262   -1.1120  -11.6932 H         1 UNK         0.0766 
    122 H122       31.1249   -1.4180   -8.6510 H         1 UNK         0.0812 
    123 H123       32.4147   -2.0690   -9.6553 H         1 UNK         0.0812 
    124 H124       30.7761   -2.6704   -9.8451 H         1 UNK         0.0812 
    125 H125       30.5083    1.5784   -9.6965 H         1 UNK         0.3205 
    126 H126       31.4613    3.4414   -8.9911 H         1 UNK         0.0754 
    127 H127       33.7469    2.9716  -10.9822 H         1 UNK         0.0769 
    128 H128       32.2403    3.8145  -11.3407 H         1 UNK         0.0769 
    129 H129       33.3641    4.4772  -10.1645 H         1 UNK         0.0769 
    130 H130       31.5730    1.4890   -7.3527 H         1 UNK         0.2981 
    131 H131       34.1575    0.6278   -6.4287 H         1 UNK         0.0541 
    132 H132       35.4514    1.4587   -4.7192 H         1 UNK         0.3459 
    133 H133       35.0659    2.9395   -3.8813 H         1 UNK         0.3459 
    134 H134       31.9177   -0.6100   -6.1942 H         1 UNK         0.0612 
    135 H135       31.4985    0.5007   -4.9172 H         1 UNK         0.0612 
    136 H136       33.5844   -2.4865   -6.1120 H         1 UNK         0.0624 
    137 H137       33.9872   -3.2646   -4.6042 H         1 UNK         0.0624 
@<TRIPOS>BOND
     1    1    2 1    
     2    1   72 1    
     3    1   73 1    
     4    1   74 1    
     5    2    3 2    
     6    2    4 am   BACKBONE|DICT|INTERRES
     7    4    5 1    
     8    4   75 1    
     9    5    6 1    
    10    5   35 1    
    11    5   76 1    
    12    6    7 1    
    13    6   77 1    
    14    6   78 1    
    15    7    8 1    
    16    8    9 1    
    17    8   79 1    
    18    8   80 1    
    19    9   10 ar   
    20    9   14 ar   
    21   10   11 ar   
    22   10   81 1    
    23   11   12 ar   
    24   11   71 1    
    25   12   13 ar   
    26   12   82 1    
    27   13   14 ar   
    28   13   15 1    
    29   14   83 1    
    30   15   16 1    
    31   15   84 1    
    32   15   85 1    
    33   16   17 1    
    34   17   18 1    
    35   17   86 1    
    36   17   87 1    
    37   18   19 1    
    38   18   37 1    
    39   18   88 1    
    40   19   20 am   BACKBONE|DICT|INTERRES
    41   19   89 1    
    42   20   21 2    
    43   20   22 1    
    44   22   23 1    
    45   22   24 1    
    46   22   90 1    
    47   23   91 1    
    48   23   92 1    
    49   23   93 1    
    50   24   25 am   BACKBONE|DICT|INTERRES
    51   24   94 1    
    52   25   26 2    
    53   25   27 1    
    54   27   28 1    
    55   27   29 1    
    56   27   95 1    
    57   28   96 1    
    58   28   97 1    
    59   28   98 1    
    60   29   30 am   BACKBONE|DICT|INTERRES
    61   29   99 1    
    62   30   31 2    
    63   30   32 1    
    64   32   33 1    
    65   32   34 1    
    66   32  100 1    
    67   33  101 1    
    68   33  102 1    
    69   33  103 1    
    70   34   35 am   BACKBONE|DICT|INTERRES
    71   34  104 1    
    72   35   36 2    
    73   37   38 2    
    74   37   39 am   BACKBONE|DICT|INTERRES
    75   39   40 1    
    76   39  105 1    
    77   40   41 1    
    78   40   42 1    
    79   40  106 1    
    80   41  107 1    
    81   41  108 1    
    82   41  109 1    
    83   42   43 2    
    84   42   44 am   BACKBONE|DICT|INTERRES
    85   44   45 1    
    86   44  110 1    
    87   45   46 1    
    88   45   47 1    
    89   45  111 1    
    90   46  112 1    
    91   46  113 1    
    92   46  114 1    
    93   47   48 2    
    94   47   49 am   BACKBONE|DICT|INTERRES
    95   49   50 1    
    96   49  115 1    
    97   50   51 1    
    98   50   52 1    
    99   50  116 1    
   100   51  117 1    
   101   51  118 1    
   102   51  119 1    
   103   52   53 2    
   104   52   54 am   BACKBONE|DICT|INTERRES
   105   54   55 1    
   106   54  120 1    
   107   55   56 1    
   108   55   57 1    
   109   55  121 1    
   110   56  122 1    
   111   56  123 1    
   112   56  124 1    
   113   57   58 2    
   114   57   59 am   BACKBONE|DICT|INTERRES
   115   59   60 1    
   116   59  125 1    
   117   60   61 1    
   118   60   62 1    
   119   60  126 1    
   120   61  127 1    
   121   61  128 1    
   122   61  129 1    
   123   62   63 2    
   124   62   64 am   BACKBONE|DICT|INTERRES
   125   64   65 1    
   126   64  130 1    
   127   65   66 1    
   128   65   69 1    
   129   65  131 1    
   130   66   67 am   BACKBONE|DICT|INTERRES
   131   66   68 2    
   132   67  132 1    
   133   67  133 1    
   134   69   70 1    
   135   69  134 1    
   136   69  135 1    
   137   70   71 1    
   138   71  136 1    
   139   71  137 1    
@<TRIPOS>SUBSTRUCTURE
     1 UNK         1 GROUP             0       ****    0 ROOT    
