@<TRIPOS>MOLECULE
3R137
137   139    1
SMALL
USER_CHARGES


@<TRIPOS>ATOM
      1 CA         26.9637   -7.3806   -2.7802 C.3       0 UNK        -0.2020 
      2 C          26.8093   -5.9514   -2.2846 C.2       0 UNK         0.4855 
      3 O          26.5973   -5.0472   -3.0922 O.2       0 UNK        -0.5197 
      4 N          26.8977   -5.7448   -0.9628 N.am      1 UNK        -0.4892 
      5 CA         26.8426   -4.4680   -0.2237 C.3       1 UNK         0.0835 
      6 C6         27.9488   -3.4578   -0.6262 C.3       12 UNK        -0.0855 
      7 S7         29.6311   -4.1185   -0.3633 S.3       12 UNK        -0.2931 
      8 C8         30.2598   -4.2188   -2.0778 C.3       12 UNK         0.0378 
      9 C9         30.5451   -2.8853   -2.7764 C.ar      12 UNK        -0.0802 
     10 C10        30.9927   -2.9187   -4.1002 C.ar      12 UNK        -0.0944 
     11 C11        31.2718   -1.7386   -4.7957 C.ar      12 UNK        -0.0787 
     12 C12        31.0903   -0.5048   -4.1637 C.ar      12 UNK        -0.0862 
     13 C13        30.6443   -0.4510   -2.8395 C.ar      12 UNK        -0.0733 
     14 C14        30.3867   -1.6408   -2.1523 C.ar      12 UNK        -0.0832 
     15 C15        30.4595    0.8802   -2.1235 C.3       12 UNK         0.0240 
     16 S16        28.7115    1.1648   -1.6899 S.3       12 UNK        -0.2522 
     17 C17        28.1860    2.3917   -2.9326 C.3       12 UNK        -0.0967 
     18 CA         28.2553    1.8992   -4.3992 C.3       5 UNK         0.0660 
     19 N          27.5686    0.6181   -4.5965 N.am      5 UNK        -0.4015 
     20 C          27.6365   -0.1248   -5.7089 C.2       4 UNK         0.4946 
     21 O          28.2977    0.1872   -6.6998 O.2       4 UNK        -0.5353 
     22 CA         26.7725   -1.3959   -5.7647 C.3       4 UNK         0.0277 
     23 CB         27.5714   -2.5990   -5.2432 C.3       4 UNK        -0.1981 
     24 N          25.4838   -1.3195   -5.0609 N.am      4 UNK        -0.4209 
     25 C          24.5620   -0.3497   -5.1766 C.2       3 UNK         0.4942 
     26 O          24.7317    0.6685   -5.8483 O.2       3 UNK        -0.5208 
     27 CA         23.2185   -0.5238   -4.4432 C.3       3 UNK         0.0250 
     28 CB         22.0616   -0.5614   -5.4566 C.3       3 UNK        -0.1990 
     29 N          23.1308   -1.7083   -3.5825 N.am      3 UNK        -0.4232 
     30 C          23.7486   -1.8595   -2.4032 C.2       2 UNK         0.4993 
     31 O          24.5134   -1.0176   -1.9300 O.2       2 UNK        -0.5286 
     32 CA         23.4860   -3.1636   -1.6282 C.3       2 UNK         0.0209 
     33 CB         22.5535   -4.1588   -2.3516 C.3       2 UNK        -0.1931 
     34 N          24.7625   -3.8232   -1.3728 N.am      2 UNK        -0.4546 
     35 C          25.4571   -3.7832   -0.2322 C.2       1 UNK         0.5154 
     36 O          25.0458   -3.2465    0.7981 O.2       1 UNK        -0.5181 
     37 C          27.7745    3.0169   -5.3518 C.2       5 UNK         0.5014 
     38 O          28.5195    3.9758   -5.5559 O.2       5 UNK        -0.5248 
     39 N          26.5621    2.8895   -5.9076 N.am      6 UNK        -0.4434 
     40 CA         26.0042    3.7957   -6.9109 C.3       6 UNK         0.0363 
     41 CB         24.6210    4.2788   -6.4438 C.3       6 UNK        -0.1936 
     42 C          25.8948    3.1025   -8.2765 C.2       6 UNK         0.5081 
     43 O          26.1798    3.7324   -9.2948 O.2       6 UNK        -0.5248 
     44 N          25.4719    1.8299   -8.2814 N.am      7 UNK        -0.4718 
     45 CA         25.2175    1.0391   -9.4873 C.3       7 UNK         0.0273 
     46 CB         24.4092   -0.2142   -9.1136 C.3       7 UNK        -0.1935 
     47 C          26.4895    0.6541  -10.2597 C.2       7 UNK         0.5018 
     48 O          26.4414    0.5995  -11.4895 O.2       7 UNK        -0.5186 
     49 N          27.5892    0.3956   -9.5399 N.am      8 UNK        -0.4240 
     50 CA         28.8987    0.0791  -10.1126 C.3       8 UNK         0.0235 
     51 CB         29.3581   -1.3089   -9.6348 C.3       8 UNK        -0.2000 
     52 C          29.9206    1.1592   -9.7410 C.2       8 UNK         0.4941 
     53 O          30.6495    1.6203  -10.6199 O.2       8 UNK        -0.5273 
     54 N          29.9561    1.5439   -8.4556 N.am      9 UNK        -0.4262 
     55 CA         30.7820    2.5822   -7.8222 C.3       9 UNK         0.0264 
     56 CB         30.4559    3.9798   -8.3852 C.3       9 UNK        -0.1955 
     57 C          32.2930    2.2960   -7.8493 C.2       9 UNK         0.5031 
     58 O          32.9065    2.1812   -6.7886 O.2       9 UNK        -0.5390 
     59 N          32.8565    2.1660   -9.0554 N.am      10 UNK        -0.4204 
     60 CA         34.2473    1.7832   -9.3123 C.3       10 UNK         0.0237 
     61 CB         34.6584    2.3156  -10.6954 C.3       10 UNK        -0.1985 
     62 C          34.4739    0.2614   -9.2286 C.2       10 UNK         0.4970 
     63 O          35.6271   -0.1700   -9.2256 O.2       10 UNK        -0.4914 
     64 N          33.3808   -0.5133   -9.1774 N.am      11 UNK        -0.4285 
     65 CA         33.3392   -1.9826   -9.0814 C.3       11 UNK         0.1007 
     66 C          33.7685   -2.7322  -10.3793 C.2       11 UNK         0.5703 
     67 N          33.8763   -2.0676  -11.5239 N.am      11 UNK        -0.7361 
     68 O          33.9736   -3.9437  -10.3604 O.2       11 UNK        -0.4986 
     69 C69        34.0385   -2.5488   -7.8091 C.3       12 UNK        -0.0947 
     70 S70        33.6076   -1.7264   -6.2361 S.3       12 UNK        -0.2240 
     71 C71        31.7910   -1.8065   -6.2221 C.3       12 UNK         0.0194 
     72 H72        27.7989   -7.4453   -3.4771 H         1 UNK         0.0906 
     73 H73        26.0601   -7.6962   -3.3010 H         1 UNK         0.0906 
     74 H74        27.1479   -8.0793   -1.9644 H         1 UNK         0.0906 
     75 H75        27.0413   -6.5506   -0.3693 H         1 UNK         0.3140 
     76 H76        27.0220   -4.7382    0.8187 H         1 UNK         0.1085 
     77 H77        27.8268   -3.1439   -1.6644 H         1 UNK         0.0836 
     78 H78        27.8652   -2.5464   -0.0304 H         1 UNK         0.0836 
     79 H79        31.1827   -4.8001   -2.0605 H         1 UNK         0.0731 
     80 H80        29.5499   -4.7893   -2.6781 H         1 UNK         0.0731 
     81 H81        31.1339   -3.8721   -4.5913 H         1 UNK         0.1312 
     82 H82        31.3149    0.4068   -4.7008 H         1 UNK         0.1406 
     83 H83        30.0550   -1.5762   -1.1265 H         1 UNK         0.1631 
     84 H84        30.8442    1.7090   -2.7196 H         1 UNK         0.0717 
     85 H85        31.0483    0.8696   -1.2052 H         1 UNK         0.0717 
     86 H86        27.1660    2.6906   -2.6822 H         1 UNK         0.0934 
     87 H87        28.7994    3.2858   -2.8016 H         1 UNK         0.0934 
     88 H88        29.3037    1.7321   -4.6475 H         1 UNK         0.0739 
     89 H89        27.0079    0.2865   -3.8248 H         1 UNK         0.3093 
     90 H90        26.5476   -1.5770   -6.8167 H         1 UNK         0.0818 
     91 H91        28.5197   -2.6968   -5.7734 H         1 UNK         0.0819 
     92 H92        27.8006   -2.5039   -4.1809 H         1 UNK         0.0819 
     93 H93        27.0274   -3.5326   -5.3863 H         1 UNK         0.0819 
     94 H94        25.2526   -2.1076   -4.4745 H         1 UNK         0.3041 
     95 H95        23.0889    0.3598   -3.8146 H         1 UNK         0.0784 
     96 H96        22.0571    0.3328   -6.0821 H         1 UNK         0.0793 
     97 H97        22.1353   -1.4224   -6.1222 H         1 UNK         0.0793 
     98 H98        21.0945   -0.6044   -4.9551 H         1 UNK         0.0793 
     99 H99        22.5304   -2.4540   -3.9048 H         1 UNK         0.3024 
    100 H100       23.0122   -2.8796   -0.6856 H         1 UNK         0.1171 
    101 H101       22.9630   -4.4875   -3.3080 H         1 UNK         0.0786 
    102 H102       22.3947   -5.0500   -1.7439 H         1 UNK         0.0786 
    103 H103       21.5691   -3.7250   -2.5330 H         1 UNK         0.0786 
    104 H104       25.2326   -4.2512   -2.1682 H         1 UNK         0.2977 
    105 H105       26.0092    2.0623   -5.6986 H         1 UNK         0.3127 
    106 H106       26.6431    4.6722   -7.0380 H         1 UNK         0.0770 
    107 H107       24.1739    4.9508   -7.1776 H         1 UNK         0.0814 
    108 H108       23.9293    3.4481   -6.2961 H         1 UNK         0.0814 
    109 H109       24.6916    4.8259   -5.5037 H         1 UNK         0.0814 
    110 H110       25.2166    1.3954   -7.3963 H         1 UNK         0.2983 
    111 H111       24.6046    1.6466  -10.1571 H         1 UNK         0.0947 
    112 H112       24.9615   -0.8658   -8.4372 H         1 UNK         0.0806 
    113 H113       24.1633   -0.7989  -10.0011 H         1 UNK         0.0806 
    114 H114       23.4690    0.0499   -8.6290 H         1 UNK         0.0806 
    115 H115       27.5450    0.4742   -8.5294 H         1 UNK         0.3000 
    116 H116       28.8425    0.0521  -11.2030 H         1 UNK         0.0850 
    117 H117       30.2984   -1.5874  -10.1105 H         1 UNK         0.0810 
    118 H118       28.6283   -2.0750   -9.8971 H         1 UNK         0.0810 
    119 H119       29.5055   -1.3485   -8.5552 H         1 UNK         0.0810 
    120 H120       29.3473    1.0438   -7.8059 H         1 UNK         0.3040 
    121 H121       30.4921    2.5812   -6.7712 H         1 UNK         0.0766 
    122 H122       31.0118    4.7521   -7.8522 H         1 UNK         0.0812 
    123 H123       29.3961    4.2097   -8.2719 H         1 UNK         0.0812 
    124 H124       30.7045    4.0702   -9.4428 H         1 UNK         0.0812 
    125 H125       32.2294    2.2104   -9.8576 H         1 UNK         0.3205 
    126 H126       34.8864    2.2499   -8.5597 H         1 UNK         0.0754 
    127 H127       35.6993    2.0741  -10.9156 H         1 UNK         0.0769 
    128 H128       34.5622    3.4004  -10.7460 H         1 UNK         0.0769 
    129 H129       34.0476    1.8876  -11.4914 H         1 UNK         0.0769 
    130 H130       32.4851   -0.0532   -9.2115 H         1 UNK         0.2981 
    131 H131       32.2815   -2.2228   -8.9860 H         1 UNK         0.0541 
    132 H132       34.1431   -2.5654  -12.3585 H         1 UNK         0.3459 
    133 H133       33.7042   -1.0764  -11.5604 H         1 UNK         0.3459 
    134 H134       35.1225   -2.4936   -7.9197 H         1 UNK         0.0612 
    135 H135       33.8056   -3.6088   -7.6938 H         1 UNK         0.0612 
    136 H136       31.4565   -2.7298   -6.6975 H         1 UNK         0.0624 
    137 H137       31.3849   -0.9828   -6.8115 H         1 UNK         0.0624 
@<TRIPOS>BOND
     1    1    2 1    
     2    1   72 1    
     3    1   73 1    
     4    1   74 1    
     5    2    3 2    
     6    2    4 am   BACKBONE|DICT|INTERRES
     7    4    5 1    
     8    4   75 1    
     9    5    6 1    
    10    5   35 1    
    11    5   76 1    
    12    6    7 1    
    13    6   77 1    
    14    6   78 1    
    15    7    8 1    
    16    8    9 1    
    17    8   79 1    
    18    8   80 1    
    19    9   10 ar   
    20    9   14 ar   
    21   10   11 ar   
    22   10   81 1    
    23   11   12 ar   
    24   11   71 1    
    25   12   13 ar   
    26   12   82 1    
    27   13   14 ar   
    28   13   15 1    
    29   14   83 1    
    30   15   16 1    
    31   15   84 1    
    32   15   85 1    
    33   16   17 1    
    34   17   18 1    
    35   17   86 1    
    36   17   87 1    
    37   18   19 1    
    38   18   37 1    
    39   18   88 1    
    40   19   20 am   BACKBONE|DICT|INTERRES
    41   19   89 1    
    42   20   21 2    
    43   20   22 1    
    44   22   23 1    
    45   22   24 1    
    46   22   90 1    
    47   23   91 1    
    48   23   92 1    
    49   23   93 1    
    50   24   25 am   BACKBONE|DICT|INTERRES
    51   24   94 1    
    52   25   26 2    
    53   25   27 1    
    54   27   28 1    
    55   27   29 1    
    56   27   95 1    
    57   28   96 1    
    58   28   97 1    
    59   28   98 1    
    60   29   30 am   BACKBONE|DICT|INTERRES
    61   29   99 1    
    62   30   31 2    
    63   30   32 1    
    64   32   33 1    
    65   32   34 1    
    66   32  100 1    
    67   33  101 1    
    68   33  102 1    
    69   33  103 1    
    70   34   35 am   BACKBONE|DICT|INTERRES
    71   34  104 1    
    72   35   36 2    
    73   37   38 2    
    74   37   39 am   BACKBONE|DICT|INTERRES
    75   39   40 1    
    76   39  105 1    
    77   40   41 1    
    78   40   42 1    
    79   40  106 1    
    80   41  107 1    
    81   41  108 1    
    82   41  109 1    
    83   42   43 2    
    84   42   44 am   BACKBONE|DICT|INTERRES
    85   44   45 1    
    86   44  110 1    
    87   45   46 1    
    88   45   47 1    
    89   45  111 1    
    90   46  112 1    
    91   46  113 1    
    92   46  114 1    
    93   47   48 2    
    94   47   49 am   BACKBONE|DICT|INTERRES
    95   49   50 1    
    96   49  115 1    
    97   50   51 1    
    98   50   52 1    
    99   50  116 1    
   100   51  117 1    
   101   51  118 1    
   102   51  119 1    
   103   52   53 2    
   104   52   54 am   BACKBONE|DICT|INTERRES
   105   54   55 1    
   106   54  120 1    
   107   55   56 1    
   108   55   57 1    
   109   55  121 1    
   110   56  122 1    
   111   56  123 1    
   112   56  124 1    
   113   57   58 2    
   114   57   59 am   BACKBONE|DICT|INTERRES
   115   59   60 1    
   116   59  125 1    
   117   60   61 1    
   118   60   62 1    
   119   60  126 1    
   120   61  127 1    
   121   61  128 1    
   122   61  129 1    
   123   62   63 2    
   124   62   64 am   BACKBONE|DICT|INTERRES
   125   64   65 1    
   126   64  130 1    
   127   65   66 1    
   128   65   69 1    
   129   65  131 1    
   130   66   67 am   BACKBONE|DICT|INTERRES
   131   66   68 2    
   132   67  132 1    
   133   67  133 1    
   134   69   70 1    
   135   69  134 1    
   136   69  135 1    
   137   70   71 1    
   138   71  136 1    
   139   71  137 1    
@<TRIPOS>SUBSTRUCTURE
     1 UNK         1 GROUP             0       ****    0 ROOT    
