@<TRIPOS>MOLECULE
3R137
137   139    1
SMALL
USER_CHARGES


@<TRIPOS>ATOM
      1 CA         28.0169   -1.8280    4.4086 C.3       0 UNK        -0.2020 
      2 C          28.2400   -1.4456    2.9529 C.2       0 UNK         0.4855 
      3 O          28.9250   -0.4601    2.6770 O.2       0 UNK        -0.5197 
      4 N          27.6750   -2.2211    2.0191 N.am      1 UNK        -0.4892 
      5 CA         27.7247   -1.9572    0.5784 C.3       1 UNK         0.0835 
      6 C6         27.3546   -3.2272   -0.2299 C.3       12 UNK        -0.0855 
      7 S7         27.8004   -3.0921   -1.9951 S.3       12 UNK        -0.2931 
      8 C8         29.1754   -4.2726   -2.1129 C.3       12 UNK         0.0378 
      9 C9         29.8036   -4.2182   -3.4951 C.ar      12 UNK        -0.0802 
     10 C10        30.8644   -3.3456   -3.7443 C.ar      12 UNK        -0.0944 
     11 C11        31.4360   -3.2584   -5.0184 C.ar      12 UNK        -0.0787 
     12 C12        30.9542   -4.0878   -6.0392 C.ar      12 UNK        -0.0862 
     13 C13        29.9073   -4.9853   -5.7957 C.ar      12 UNK        -0.0733 
     14 C14        29.3288   -5.0363   -4.5232 C.ar      12 UNK        -0.0832 
     15 C15        29.4344   -5.9439   -6.8838 C.3       12 UNK         0.0240 
     16 S16        28.6100   -5.1165   -8.2819 S.3       12 UNK        -0.2522 
     17 C17        27.1194   -4.4023   -7.5019 C.3       12 UNK        -0.0967 
     18 CA         26.7494   -3.0123   -8.0806 C.3       5 UNK         0.0660 
     19 N          25.4499   -2.5440   -7.5878 N.am      5 UNK        -0.4015 
     20 C          24.8053   -1.4555   -8.0371 C.2       4 UNK         0.4946 
     21 O          25.1960   -0.7638   -8.9758 O.2       4 UNK        -0.5353 
     22 CA         23.5240   -1.0374   -7.2918 C.3       4 UNK         0.0277 
     23 CB         22.2944   -1.7181   -7.9143 C.3       4 UNK        -0.1981 
     24 N          23.5505   -1.2964   -5.8471 N.am      4 UNK        -0.4209 
     25 C          24.4801   -0.8390   -4.9963 C.2       3 UNK         0.4942 
     26 O          25.4462   -0.1552   -5.3443 O.2       3 UNK        -0.5208 
     27 CA         24.3219   -1.2732   -3.5290 C.3       3 UNK         0.0250 
     28 CB         24.4604   -2.8007   -3.3933 C.3       3 UNK        -0.1990 
     29 N          25.3241   -0.6391   -2.6731 N.am      3 UNK        -0.4232 
     30 C          25.2692    0.6195   -2.2147 C.2       2 UNK         0.4993 
     31 O          24.3095    1.3711   -2.3990 O.2       2 UNK        -0.5286 
     32 CA         26.4984    1.1204   -1.4242 C.3       2 UNK         0.0209 
     33 CB         26.1556    2.2527   -0.4315 C.3       2 UNK        -0.1931 
     34 N          27.2454    0.0383   -0.7632 N.am      2 UNK        -0.4546 
     35 C          26.8035   -0.7740    0.2102 C.2       1 UNK         0.5154 
     36 O          25.7064   -0.6626    0.7643 O.2       1 UNK        -0.5181 
     37 C          27.8538   -1.9634   -7.8367 C.2       5 UNK         0.5014 
     38 O          28.5310   -1.5698   -8.7862 O.2       5 UNK        -0.5248 
     39 N          27.9805   -1.5071   -6.5813 N.am      6 UNK        -0.4434 
     40 CA         28.9362   -0.4841   -6.1539 C.3       6 UNK         0.0363 
     41 CB         28.8376   -0.2882   -4.6314 C.3       6 UNK        -0.1936 
     42 C          28.7240    0.8511   -6.8788 C.2       6 UNK         0.5081 
     43 O          29.6900    1.4341   -7.3799 O.2       6 UNK        -0.5248 
     44 N          27.4544    1.2799   -6.9298 N.am      7 UNK        -0.4718 
     45 CA         26.9918    2.5192   -7.5534 C.3       7 UNK         0.0273 
     46 CB         25.5050    2.7243   -7.2261 C.3       7 UNK        -0.1935 
     47 C          27.2209    2.5804   -9.0718 C.2       7 UNK         0.5018 
     48 O          27.4620    3.6707   -9.5914 O.2       7 UNK        -0.5186 
     49 N          27.1918    1.4295   -9.7600 N.am      8 UNK        -0.4240 
     50 CA         27.4628    1.2862  -11.1969 C.3       8 UNK         0.0235 
     51 CB         26.8300   -0.0238  -11.7021 C.3       8 UNK        -0.2000 
     52 C          28.9643    1.3899  -11.5464 C.2       8 UNK         0.4941 
     53 O          29.4733    0.5839  -12.3268 O.2       8 UNK        -0.5273 
     54 N          29.6452    2.3835  -10.9582 N.am      9 UNK        -0.4262 
     55 CA         31.0531    2.7611  -11.1269 C.3       9 UNK         0.0264 
     56 CB         31.3054    3.2680  -12.5631 C.3       9 UNK        -0.1955 
     57 C          32.0825    1.6929  -10.7026 C.2       9 UNK         0.5031 
     58 O          33.2638    1.8551  -11.0158 O.2       9 UNK        -0.5390 
     59 N          31.6543    0.6375   -9.9935 N.am      10 UNK        -0.4204 
     60 CA         32.5393   -0.4284   -9.5166 C.3       10 UNK         0.0237 
     61 CB         31.7263   -1.6822   -9.1647 C.3       10 UNK        -0.1985 
     62 C          33.3919    0.0164   -8.3204 C.2       10 UNK         0.4970 
     63 O          34.5638   -0.3567   -8.2536 O.2       10 UNK        -0.4914 
     64 N          32.8009    0.8028   -7.4121 N.am      11 UNK        -0.4285 
     65 CA         33.4772    1.3415   -6.2227 C.3       11 UNK         0.1007 
     66 C          32.8057    2.6032   -5.6109 C.2       11 UNK         0.5703 
     67 N          31.5958    2.9917   -5.9976 N.am      11 UNK        -0.7361 
     68 O          33.4171    3.2736   -4.7821 O.2       11 UNK        -0.4986 
     69 C69        33.8048    0.2550   -5.1576 C.3       12 UNK        -0.0947 
     70 S70        32.3363   -0.6465   -4.5623 S.3       12 UNK        -0.2240 
     71 C71        32.5957   -2.3019   -5.2857 C.3       12 UNK         0.0194 
     72 H72        27.4068   -2.7259    4.5064 H         1 UNK         0.0906 
     73 H73        28.9723   -2.0128    4.8989 H         1 UNK         0.0906 
     74 H74        27.5141   -1.0178    4.9361 H         1 UNK         0.0906 
     75 H75        27.0908   -2.9944    2.3045 H         1 UNK         0.3140 
     76 H76        28.7547   -1.6846    0.3353 H         1 UNK         0.1085 
     77 H77        27.8617   -4.0969    0.1915 H         1 UNK         0.0836 
     78 H78        26.2870   -3.4442   -0.1531 H         1 UNK         0.0836 
     79 H79        29.9223   -4.0421   -1.3513 H         1 UNK         0.0731 
     80 H80        28.8128   -5.2795   -1.9000 H         1 UNK         0.0731 
     81 H81        31.2352   -2.7196   -2.9445 H         1 UNK         0.1312 
     82 H82        31.4007   -4.0487   -7.0233 H         1 UNK         0.1406 
     83 H83        28.5159   -5.7220   -4.3256 H         1 UNK         0.1631 
     84 H84        28.7582   -6.6957   -6.4736 H         1 UNK         0.0717 
     85 H85        30.2966   -6.4920   -7.2662 H         1 UNK         0.0717 
     86 H86        27.2512   -4.3454   -6.4206 H         1 UNK         0.0934 
     87 H87        26.2990   -5.1026   -7.6669 H         1 UNK         0.0934 
     88 H88        26.6482   -3.1220   -9.1629 H         1 UNK         0.0739 
     89 H89        25.0428   -3.0534   -6.8182 H         1 UNK         0.3093 
     90 H90        23.4140    0.0408   -7.4213 H         1 UNK         0.0818 
     91 H91        21.3687   -1.3462   -7.4748 H         1 UNK         0.0819 
     92 H92        22.2417   -1.5221   -8.9864 H         1 UNK         0.0819 
     93 H93        22.3194   -2.8005   -7.7821 H         1 UNK         0.0819 
     94 H94        22.7916   -1.8515   -5.4779 H         1 UNK         0.3041 
     95 H95        23.3284   -0.9752   -3.1873 H         1 UNK         0.0784 
     96 H96        25.3979   -3.1620   -3.8180 H         1 UNK         0.0793 
     97 H97        24.4284   -3.1100   -2.3482 H         1 UNK         0.0793 
     98 H98        23.6499   -3.3227   -3.9028 H         1 UNK         0.0793 
     99 H99        26.1580   -1.1787   -2.4881 H         1 UNK         0.3024 
    100 H100       27.1720    1.5405   -2.1732 H         1 UNK         0.1171 
    101 H101       25.7503    3.1204   -0.9537 H         1 UNK         0.0786 
    102 H102       27.0402    2.5872    0.1103 H         1 UNK         0.0786 
    103 H103       25.4108    1.9406    0.3009 H         1 UNK         0.0786 
    104 H104       28.1583   -0.1532   -1.1537 H         1 UNK         0.2977 
    105 H105       27.3396   -1.8399   -5.8770 H         1 UNK         0.3127 
    106 H106       29.9381   -0.8432   -6.3910 H         1 UNK         0.0770 
    107 H107       27.8447    0.0355   -4.3219 H         1 UNK         0.0814 
    108 H108       29.5440    0.4695   -4.2904 H         1 UNK         0.0814 
    109 H109       29.0698   -1.2093   -4.0992 H         1 UNK         0.0814 
    110 H110       26.7457    0.7175   -6.4630 H         1 UNK         0.2983 
    111 H111       27.5586    3.3387   -7.1063 H         1 UNK         0.0947 
    112 H112       25.1430    3.6721   -7.6269 H         1 UNK         0.0806 
    113 H113       25.3323    2.7386   -6.1496 H         1 UNK         0.0806 
    114 H114       24.8896    1.9322   -7.6530 H         1 UNK         0.0806 
    115 H115       26.9706    0.5759   -9.2595 H         1 UNK         0.3000 
    116 H116       26.9683    2.1083  -11.7185 H         1 UNK         0.0850 
    117 H117       26.9758   -0.1471  -12.7760 H         1 UNK         0.0810 
    118 H118       25.7550   -0.0384  -11.5226 H         1 UNK         0.0810 
    119 H119       27.2640   -0.8942  -11.2082 H         1 UNK         0.0810 
    120 H120       29.1040    2.9872  -10.3446 H         1 UNK         0.3040 
    121 H121       31.2122    3.6024  -10.4508 H         1 UNK         0.0766 
    122 H122       32.3048    3.6936  -12.6618 H         1 UNK         0.0812 
    123 H123       30.5965    4.0486  -12.8392 H         1 UNK         0.0812 
    124 H124       31.2219    2.4641  -13.2953 H         1 UNK         0.0812 
    125 H125       30.6722    0.5689   -9.7630 H         1 UNK         0.3205 
    126 H126       33.2183   -0.6937  -10.3302 H         1 UNK         0.0754 
    127 H127       32.3857   -2.5194   -8.9332 H         1 UNK         0.0769 
    128 H128       31.0876   -1.9914   -9.9925 H         1 UNK         0.0769 
    129 H129       31.0926   -1.5199   -8.2942 H         1 UNK         0.0769 
    130 H130       31.8302    1.0617   -7.5326 H         1 UNK         0.2981 
    131 H131       34.4370    1.7213   -6.5788 H         1 UNK         0.0541 
    132 H132       31.2160    3.8288   -5.5865 H         1 UNK         0.3459 
    133 H133       31.0098    2.4404   -6.6164 H         1 UNK         0.3459 
    134 H134       34.3033    0.7006   -4.2951 H         1 UNK         0.0612 
    135 H135       34.5226   -0.4596   -5.5615 H         1 UNK         0.0612 
    136 H136       33.5090   -2.7320   -4.8729 H         1 UNK         0.0624 
    137 H137       32.7565   -2.1923   -6.3582 H         1 UNK         0.0624 
@<TRIPOS>BOND
     1    1    2 1    
     2    1   72 1    
     3    1   73 1    
     4    1   74 1    
     5    2    3 2    
     6    2    4 am   BACKBONE|DICT|INTERRES
     7    4    5 1    
     8    4   75 1    
     9    5    6 1    
    10    5   35 1    
    11    5   76 1    
    12    6    7 1    
    13    6   77 1    
    14    6   78 1    
    15    7    8 1    
    16    8    9 1    
    17    8   79 1    
    18    8   80 1    
    19    9   10 ar   
    20    9   14 ar   
    21   10   11 ar   
    22   10   81 1    
    23   11   12 ar   
    24   11   71 1    
    25   12   13 ar   
    26   12   82 1    
    27   13   14 ar   
    28   13   15 1    
    29   14   83 1    
    30   15   16 1    
    31   15   84 1    
    32   15   85 1    
    33   16   17 1    
    34   17   18 1    
    35   17   86 1    
    36   17   87 1    
    37   18   19 1    
    38   18   37 1    
    39   18   88 1    
    40   19   20 am   BACKBONE|DICT|INTERRES
    41   19   89 1    
    42   20   21 2    
    43   20   22 1    
    44   22   23 1    
    45   22   24 1    
    46   22   90 1    
    47   23   91 1    
    48   23   92 1    
    49   23   93 1    
    50   24   25 am   BACKBONE|DICT|INTERRES
    51   24   94 1    
    52   25   26 2    
    53   25   27 1    
    54   27   28 1    
    55   27   29 1    
    56   27   95 1    
    57   28   96 1    
    58   28   97 1    
    59   28   98 1    
    60   29   30 am   BACKBONE|DICT|INTERRES
    61   29   99 1    
    62   30   31 2    
    63   30   32 1    
    64   32   33 1    
    65   32   34 1    
    66   32  100 1    
    67   33  101 1    
    68   33  102 1    
    69   33  103 1    
    70   34   35 am   BACKBONE|DICT|INTERRES
    71   34  104 1    
    72   35   36 2    
    73   37   38 2    
    74   37   39 am   BACKBONE|DICT|INTERRES
    75   39   40 1    
    76   39  105 1    
    77   40   41 1    
    78   40   42 1    
    79   40  106 1    
    80   41  107 1    
    81   41  108 1    
    82   41  109 1    
    83   42   43 2    
    84   42   44 am   BACKBONE|DICT|INTERRES
    85   44   45 1    
    86   44  110 1    
    87   45   46 1    
    88   45   47 1    
    89   45  111 1    
    90   46  112 1    
    91   46  113 1    
    92   46  114 1    
    93   47   48 2    
    94   47   49 am   BACKBONE|DICT|INTERRES
    95   49   50 1    
    96   49  115 1    
    97   50   51 1    
    98   50   52 1    
    99   50  116 1    
   100   51  117 1    
   101   51  118 1    
   102   51  119 1    
   103   52   53 2    
   104   52   54 am   BACKBONE|DICT|INTERRES
   105   54   55 1    
   106   54  120 1    
   107   55   56 1    
   108   55   57 1    
   109   55  121 1    
   110   56  122 1    
   111   56  123 1    
   112   56  124 1    
   113   57   58 2    
   114   57   59 am   BACKBONE|DICT|INTERRES
   115   59   60 1    
   116   59  125 1    
   117   60   61 1    
   118   60   62 1    
   119   60  126 1    
   120   61  127 1    
   121   61  128 1    
   122   61  129 1    
   123   62   63 2    
   124   62   64 am   BACKBONE|DICT|INTERRES
   125   64   65 1    
   126   64  130 1    
   127   65   66 1    
   128   65   69 1    
   129   65  131 1    
   130   66   67 am   BACKBONE|DICT|INTERRES
   131   66   68 2    
   132   67  132 1    
   133   67  133 1    
   134   69   70 1    
   135   69  134 1    
   136   69  135 1    
   137   70   71 1    
   138   71  136 1    
   139   71  137 1    
@<TRIPOS>SUBSTRUCTURE
     1 UNK         1 GROUP             0       ****    0 ROOT    
