@<TRIPOS>MOLECULE
3R137
137   139    1
SMALL
USER_CHARGES


@<TRIPOS>ATOM
      1 CA         29.6666   -5.1144   -5.5785 C.3       0 UNK        -0.2020 
      2 C          28.3797   -4.8340   -4.8217 C.2       0 UNK         0.4855 
      3 O          27.2906   -5.0583   -5.3512 O.2       0 UNK        -0.5197 
      4 N          28.4944   -4.3590   -3.5762 N.am      1 UNK        -0.4892 
      5 CA         27.3689   -4.0785   -2.6788 C.3       1 UNK         0.0835 
      6 C6         27.8231   -3.7745   -1.2272 C.3       12 UNK        -0.0855 
      7 S7         29.0902   -4.9434   -0.6139 S.3       12 UNK        -0.2931 
      8 C8         30.3525   -3.8387    0.1050 C.3       12 UNK         0.0378 
      9 C9         30.9151   -2.8251   -0.8868 C.ar      12 UNK        -0.0802 
     10 C10        31.8402   -3.2160   -1.8613 C.ar      12 UNK        -0.0944 
     11 C11        32.3949   -2.2702   -2.7303 C.ar      12 UNK        -0.0787 
     12 C12        32.0050   -0.9316   -2.6246 C.ar      12 UNK        -0.0862 
     13 C13        31.0702   -0.5230   -1.6671 C.ar      12 UNK        -0.0733 
     14 C14        30.5402   -1.4800   -0.7932 C.ar      12 UNK        -0.0832 
     15 C15        30.7127    0.9645   -1.5959 C.3       12 UNK         0.0240 
     16 S16        29.3106    1.4320   -0.5105 S.3       12 UNK        -0.2522 
     17 C17        27.8378    0.9082   -1.4560 C.3       12 UNK        -0.0967 
     18 CA         27.7141    1.6234   -2.8339 C.3       5 UNK         0.0660 
     19 N          27.9837    0.6894   -3.9263 N.am      5 UNK        -0.4015 
     20 C          28.5869    1.0069   -5.0749 C.2       4 UNK         0.4946 
     21 O          28.8757    2.1570   -5.3966 O.2       4 UNK        -0.5353 
     22 CA         28.9229   -0.1529   -6.0151 C.3       4 UNK         0.0277 
     23 CB         30.0165   -1.0255   -5.3965 C.3       4 UNK        -0.1981 
     24 N          27.7585   -0.9962   -6.2640 N.am      4 UNK        -0.4209 
     25 C          27.1943   -1.1952   -7.4606 C.2       3 UNK         0.4942 
     26 O          27.5842   -0.6494   -8.4929 O.2       3 UNK        -0.5208 
     27 CA         26.0105   -2.1794   -7.5413 C.3       3 UNK         0.0250 
     28 CB         26.4331   -3.4655   -8.2682 C.3       3 UNK        -0.1990 
     29 N          25.4296   -2.5154   -6.2381 N.am      3 UNK        -0.4232 
     30 C          24.7644   -1.6423   -5.4664 C.2       2 UNK         0.4993 
     31 O          24.5552   -0.4741   -5.7947 O.2       2 UNK        -0.5286 
     32 CA         24.3336   -2.1193   -4.0664 C.3       2 UNK         0.0209 
     33 CB         22.9016   -2.6740   -4.1060 C.3       2 UNK        -0.1931 
     34 N          25.2343   -3.1170   -3.4700 N.am      2 UNK        -0.4546 
     35 C          26.5391   -2.9116   -3.2425 C.2       1 UNK         0.5154 
     36 O          27.1097   -1.8501   -3.5024 O.2       1 UNK        -0.5181 
     37 C          26.3898    2.3976   -3.0155 C.2       5 UNK         0.5014 
     38 O          26.1214    3.2944   -2.2138 O.2       5 UNK        -0.5248 
     39 N          25.6054    2.0849   -4.0584 N.am      6 UNK        -0.4434 
     40 CA         24.4421    2.8683   -4.4768 C.3       6 UNK         0.0363 
     41 CB         23.1329    2.1411   -4.1214 C.3       6 UNK        -0.1936 
     42 C          24.5301    3.2088   -5.9707 C.2       6 UNK         0.5081 
     43 O          24.4892    4.3904   -6.3142 O.2       6 UNK        -0.5248 
     44 N          24.6509    2.1909   -6.8373 N.am      7 UNK        -0.4718 
     45 CA         24.6349    2.3740   -8.2966 C.3       7 UNK         0.0273 
     46 CB         24.2642    1.0510   -8.9820 C.3       7 UNK        -0.1935 
     47 C          25.9467    2.9253   -8.8865 C.2       7 UNK         0.5018 
     48 O          25.9011    3.5308   -9.9579 O.2       7 UNK        -0.5186 
     49 N          27.0764    2.7030   -8.1959 N.am      8 UNK        -0.4240 
     50 CA         28.4367    3.1315   -8.5601 C.3       8 UNK         0.0235 
     51 CB         28.5651    4.6667   -8.4577 C.3       8 UNK        -0.2000 
     52 C          28.9395    2.5724   -9.9074 C.2       8 UNK         0.4941 
     53 O          29.6555    3.2694  -10.6296 O.2       8 UNK        -0.5273 
     54 N          28.5667    1.3250  -10.2185 N.am      9 UNK        -0.4262 
     55 CA         28.9690    0.6089  -11.4286 C.3       9 UNK         0.0264 
     56 CB         27.7432   -0.1101  -12.0177 C.3       9 UNK        -0.1955 
     57 C          30.0943   -0.3968  -11.1413 C.2       9 UNK         0.5031 
     58 O          31.0375   -0.4850  -11.9293 O.2       9 UNK        -0.5390 
     59 N          29.9708   -1.1474  -10.0396 N.am      10 UNK        -0.4204 
     60 CA         30.9038   -2.2025   -9.6381 C.3       10 UNK         0.0237 
     61 CB         30.0944   -3.3421   -8.9986 C.3       10 UNK        -0.1985 
     62 C          31.9651   -1.6864   -8.6530 C.2       10 UNK         0.4970 
     63 O          31.7319   -0.6804   -7.9832 O.2       10 UNK        -0.4914 
     64 N          33.0842   -2.4243   -8.5773 N.am      11 UNK        -0.4285 
     65 CA         34.2192   -2.3161   -7.6331 C.3       11 UNK         0.1007 
     66 C          34.7468   -0.8945   -7.2605 C.2       11 UNK         0.5703 
     67 N          34.6299    0.0938   -8.1383 N.am      11 UNK        -0.7361 
     68 O          35.3169   -0.6897   -6.1913 O.2       11 UNK        -0.4986 
     69 C69        34.1197   -3.3200   -6.4425 C.3       12 UNK        -0.0947 
     70 S70        32.6733   -3.1106   -5.3532 S.3       12 UNK        -0.2240 
     71 C71        33.4396   -2.6771   -3.7631 C.3       12 UNK         0.0194 
     72 H72        29.9231   -4.2658   -6.2078 H         1 UNK         0.0906 
     73 H73        30.4977   -5.2988   -4.8979 H         1 UNK         0.0906 
     74 H74        29.5518   -5.9914   -6.2149 H         1 UNK         0.0906 
     75 H75        29.4079   -4.1770   -3.1842 H         1 UNK         0.3140 
     76 H76        26.7451   -4.9748   -2.6551 H         1 UNK         0.1085 
     77 H77        26.9664   -3.8189   -0.5523 H         1 UNK         0.0836 
     78 H78        28.2007   -2.7556   -1.1498 H         1 UNK         0.0836 
     79 H79        31.1692   -4.4491    0.4931 H         1 UNK         0.0731 
     80 H80        29.9220   -3.3314    0.9699 H         1 UNK         0.0731 
     81 H81        32.1414   -4.2525   -1.9303 H         1 UNK         0.1312 
     82 H82        32.4392   -0.2005   -3.2933 H         1 UNK         0.1406 
     83 H83        29.8395   -1.1853   -0.0253 H         1 UNK         0.1631 
     84 H84        30.5322    1.3406   -2.6029 H         1 UNK         0.0717 
     85 H85        31.5933    1.4966   -1.2338 H         1 UNK         0.0717 
     86 H86        27.8701   -0.1768   -1.5632 H         1 UNK         0.0934 
     87 H87        26.9703    1.0988   -0.8208 H         1 UNK         0.0934 
     88 H88        28.4699    2.4102   -2.8795 H         1 UNK         0.0739 
     89 H89        27.7449   -0.2861   -3.7422 H         1 UNK         0.3093 
     90 H90        29.3086    0.2668   -6.9466 H         1 UNK         0.0818 
     91 H91        29.7350   -1.4337   -4.4249 H         1 UNK         0.0819 
     92 H92        30.2408   -1.8645   -6.0507 H         1 UNK         0.0819 
     93 H93        30.9392   -0.4588   -5.2696 H         1 UNK         0.0819 
     94 H94        27.3712   -1.4761   -5.4589 H         1 UNK         0.3041 
     95 H95        25.2267   -1.7103   -8.1357 H         1 UNK         0.0784 
     96 H96        26.7847   -3.2441   -9.2771 H         1 UNK         0.0793 
     97 H97        27.2425   -3.9786   -7.7495 H         1 UNK         0.0793 
     98 H98        25.6001   -4.1620   -8.3629 H         1 UNK         0.0793 
     99 H99        25.6139   -3.4454   -5.8820 H         1 UNK         0.3024 
    100 H100       24.3417   -1.2403   -3.4174 H         1 UNK         0.1171 
    101 H101       22.5420   -2.9181   -3.1062 H         1 UNK         0.0786 
    102 H102       22.2111   -1.9407   -4.5258 H         1 UNK         0.0786 
    103 H103       22.8331   -3.5742   -4.7182 H         1 UNK         0.0786 
    104 H104       24.8329   -4.0185   -3.2532 H         1 UNK         0.2977 
    105 H105       25.8853    1.3312   -4.6699 H         1 UNK         0.3127 
    106 H106       24.4307    3.8250   -3.9498 H         1 UNK         0.0770 
    107 H107       23.0407    1.1777   -4.6196 H         1 UNK         0.0814 
    108 H108       22.2682    2.7385   -4.4127 H         1 UNK         0.0814 
    109 H109       23.0593    1.9683   -3.0478 H         1 UNK         0.0814 
    110 H110       24.6216    1.2329   -6.4901 H         1 UNK         0.2983 
    111 H111       23.8487    3.0955   -8.5318 H         1 UNK         0.0947 
    112 H112       24.0243    1.2166  -10.0331 H         1 UNK         0.0806 
    113 H113       23.3961    0.5815   -8.5189 H         1 UNK         0.0806 
    114 H114       25.0913    0.3459   -8.9549 H         1 UNK         0.0806 
    115 H115       26.9969    2.1976   -7.3258 H         1 UNK         0.3000 
    116 H116       29.1088    2.7041   -7.8184 H         1 UNK         0.0850 
    117 H117       29.5997    4.9843   -8.5924 H         1 UNK         0.0810 
    118 H118       28.2438    5.0247   -7.4795 H         1 UNK         0.0810 
    119 H119       27.9671    5.1744   -9.2151 H         1 UNK         0.0810 
    120 H120       28.0193    0.7928   -9.5453 H         1 UNK         0.3040 
    121 H121       29.3344    1.3128  -12.1795 H         1 UNK         0.0766 
    122 H122       26.9592    0.6003  -12.2806 H         1 UNK         0.0812 
    123 H123       27.3180   -0.8309  -11.3179 H         1 UNK         0.0812 
    124 H124       28.0079   -0.6526  -12.9262 H         1 UNK         0.0812 
    125 H125       29.1806   -0.9789   -9.4225 H         1 UNK         0.3205 
    126 H126       31.4128   -2.5962  -10.5206 H         1 UNK         0.0754 
    127 H127       30.7419   -4.1568   -8.6716 H         1 UNK         0.0769 
    128 H128       29.3780   -3.7624   -9.7046 H         1 UNK         0.0769 
    129 H129       29.5391   -2.9936   -8.1286 H         1 UNK         0.0769 
    130 H130       33.1549   -3.2088   -9.2083 H         1 UNK         0.2981 
    131 H131       35.0519   -2.6964   -8.2259 H         1 UNK         0.0541 
    132 H132       34.9833    1.0070   -7.9022 H         1 UNK         0.3459 
    133 H133       34.1384   -0.0511   -9.0054 H         1 UNK         0.3459 
    134 H134       35.0328   -3.3013   -5.8452 H         1 UNK         0.0612 
    135 H135       34.0654   -4.3342   -6.8403 H         1 UNK         0.0612 
    136 H136       34.1477   -1.8611   -3.9150 H         1 UNK         0.0624 
    137 H137       34.0192   -3.5270   -3.4000 H         1 UNK         0.0624 
@<TRIPOS>BOND
     1    1    2 1    
     2    1   72 1    
     3    1   73 1    
     4    1   74 1    
     5    2    3 2    
     6    2    4 am   BACKBONE|DICT|INTERRES
     7    4    5 1    
     8    4   75 1    
     9    5    6 1    
    10    5   35 1    
    11    5   76 1    
    12    6    7 1    
    13    6   77 1    
    14    6   78 1    
    15    7    8 1    
    16    8    9 1    
    17    8   79 1    
    18    8   80 1    
    19    9   10 ar   
    20    9   14 ar   
    21   10   11 ar   
    22   10   81 1    
    23   11   12 ar   
    24   11   71 1    
    25   12   13 ar   
    26   12   82 1    
    27   13   14 ar   
    28   13   15 1    
    29   14   83 1    
    30   15   16 1    
    31   15   84 1    
    32   15   85 1    
    33   16   17 1    
    34   17   18 1    
    35   17   86 1    
    36   17   87 1    
    37   18   19 1    
    38   18   37 1    
    39   18   88 1    
    40   19   20 am   BACKBONE|DICT|INTERRES
    41   19   89 1    
    42   20   21 2    
    43   20   22 1    
    44   22   23 1    
    45   22   24 1    
    46   22   90 1    
    47   23   91 1    
    48   23   92 1    
    49   23   93 1    
    50   24   25 am   BACKBONE|DICT|INTERRES
    51   24   94 1    
    52   25   26 2    
    53   25   27 1    
    54   27   28 1    
    55   27   29 1    
    56   27   95 1    
    57   28   96 1    
    58   28   97 1    
    59   28   98 1    
    60   29   30 am   BACKBONE|DICT|INTERRES
    61   29   99 1    
    62   30   31 2    
    63   30   32 1    
    64   32   33 1    
    65   32   34 1    
    66   32  100 1    
    67   33  101 1    
    68   33  102 1    
    69   33  103 1    
    70   34   35 am   BACKBONE|DICT|INTERRES
    71   34  104 1    
    72   35   36 2    
    73   37   38 2    
    74   37   39 am   BACKBONE|DICT|INTERRES
    75   39   40 1    
    76   39  105 1    
    77   40   41 1    
    78   40   42 1    
    79   40  106 1    
    80   41  107 1    
    81   41  108 1    
    82   41  109 1    
    83   42   43 2    
    84   42   44 am   BACKBONE|DICT|INTERRES
    85   44   45 1    
    86   44  110 1    
    87   45   46 1    
    88   45   47 1    
    89   45  111 1    
    90   46  112 1    
    91   46  113 1    
    92   46  114 1    
    93   47   48 2    
    94   47   49 am   BACKBONE|DICT|INTERRES
    95   49   50 1    
    96   49  115 1    
    97   50   51 1    
    98   50   52 1    
    99   50  116 1    
   100   51  117 1    
   101   51  118 1    
   102   51  119 1    
   103   52   53 2    
   104   52   54 am   BACKBONE|DICT|INTERRES
   105   54   55 1    
   106   54  120 1    
   107   55   56 1    
   108   55   57 1    
   109   55  121 1    
   110   56  122 1    
   111   56  123 1    
   112   56  124 1    
   113   57   58 2    
   114   57   59 am   BACKBONE|DICT|INTERRES
   115   59   60 1    
   116   59  125 1    
   117   60   61 1    
   118   60   62 1    
   119   60  126 1    
   120   61  127 1    
   121   61  128 1    
   122   61  129 1    
   123   62   63 2    
   124   62   64 am   BACKBONE|DICT|INTERRES
   125   64   65 1    
   126   64  130 1    
   127   65   66 1    
   128   65   69 1    
   129   65  131 1    
   130   66   67 am   BACKBONE|DICT|INTERRES
   131   66   68 2    
   132   67  132 1    
   133   67  133 1    
   134   69   70 1    
   135   69  134 1    
   136   69  135 1    
   137   70   71 1    
   138   71  136 1    
   139   71  137 1    
@<TRIPOS>SUBSTRUCTURE
     1 UNK         1 GROUP             0       ****    0 ROOT    
