@<TRIPOS>MOLECULE
3R137
137   139    1
SMALL
USER_CHARGES


@<TRIPOS>ATOM
      1 CA         29.1451    0.4996    1.8728 C.3       0 UNK        -0.2020 
      2 C          29.2763   -1.0186    1.7839 C.2       0 UNK         0.4855 
      3 O          29.5271   -1.6625    2.8004 O.2       0 UNK        -0.5197 
      4 N          29.1245   -1.6394    0.6054 N.am      1 UNK        -0.4892 
      5 CA         28.7657   -1.0348   -0.6856 C.3       1 UNK         0.0835 
      6 C6         29.0926   -1.9835   -1.8684 C.3       12 UNK        -0.0855 
      7 S7         28.3058   -3.6315   -1.7295 S.3       12 UNK        -0.2931 
      8 C8         29.7063   -4.7510   -2.0437 C.3       12 UNK         0.0378 
      9 C9         30.1486   -4.6927   -3.4979 C.ar      12 UNK        -0.0802 
     10 C10        31.3430   -4.0550   -3.8512 C.ar      12 UNK        -0.0944 
     11 C11        31.7402   -3.9896   -5.1899 C.ar      12 UNK        -0.0787 
     12 C12        30.9438   -4.5828   -6.1721 C.ar      12 UNK        -0.0862 
     13 C13        29.7275   -5.1834   -5.8363 C.ar      12 UNK        -0.0733 
     14 C14        29.3452   -5.2575   -4.4944 C.ar      12 UNK        -0.0832 
     15 C15        28.7907   -5.6625   -6.9384 C.3       12 UNK         0.0240 
     16 S16        27.4178   -4.4889   -7.2397 S.3       12 UNK        -0.2522 
     17 C17        28.2354   -2.8711   -7.0117 C.3       12 UNK        -0.0967 
     18 CA         27.5349   -1.6722   -7.6851 C.3       5 UNK         0.0660 
     19 N          26.1024   -1.6166   -7.3808 N.am      5 UNK        -0.4015 
     20 C          25.2376   -0.6540   -7.7356 C.2       4 UNK         0.4946 
     21 O          25.5286    0.3003   -8.4599 O.2       4 UNK        -0.5353 
     22 CA         23.8280   -0.7285   -7.1208 C.3       4 UNK         0.0277 
     23 CB         22.8406   -1.3333   -8.1310 C.3       4 UNK        -0.1981 
     24 N          23.7532   -1.4743   -5.8545 N.am      4 UNK        -0.4209 
     25 C          24.4537   -1.1978   -4.7440 C.2       3 UNK         0.4942 
     26 O          25.2783   -0.2832   -4.6584 O.2       3 UNK        -0.5208 
     27 CA         24.2498   -2.1489   -3.5615 C.3       3 UNK         0.0250 
     28 CB         25.0437   -3.4525   -3.7759 C.3       3 UNK        -0.1990 
     29 N          24.7057   -1.4896   -2.3419 N.am      3 UNK        -0.4232 
     30 C          24.3034   -1.7719   -1.0984 C.2       2 UNK         0.4993 
     31 O          23.4701   -2.6412   -0.8338 O.2       2 UNK        -0.5286 
     32 CA         24.9691   -0.9679    0.0373 C.3       2 UNK         0.0209 
     33 CB         24.4019   -1.3136    1.4274 C.3       2 UNK        -0.1931 
     34 N          26.4170   -1.1893    0.0513 N.am      2 UNK        -0.4546 
     35 C          27.2954   -0.5696   -0.7479 C.2       1 UNK         0.5154 
     36 O          26.9779    0.3310   -1.5233 O.2       1 UNK        -0.5181 
     37 C          28.2978   -0.3909   -7.2903 C.2       5 UNK         0.5014 
     38 O          29.2922   -0.0654   -7.9407 O.2       5 UNK        -0.5248 
     39 N          27.8206    0.3274   -6.2603 N.am      6 UNK        -0.4434 
     40 CA         28.3730    1.6094   -5.8226 C.3       6 UNK         0.0363 
     41 CB         27.6027    2.1178   -4.5976 C.3       6 UNK        -0.1936 
     42 C          28.3976    2.6791   -6.9274 C.2       6 UNK         0.5081 
     43 O          29.3313    3.4810   -6.9609 O.2       6 UNK        -0.5248 
     44 N          27.4025    2.6357   -7.8231 N.am      7 UNK        -0.4718 
     45 CA         27.3380    3.4469   -9.0342 C.3       7 UNK         0.0273 
     46 CB         25.9042    3.9701   -9.2216 C.3       7 UNK        -0.1935 
     47 C          27.7823    2.6331  -10.2578 C.2       7 UNK         0.5018 
     48 O          28.6185    3.1117  -11.0230 O.2       7 UNK        -0.5186 
     49 N          27.2232    1.4242  -10.4255 N.am      8 UNK        -0.4240 
     50 CA         27.3728    0.5956  -11.6276 C.3       8 UNK         0.0235 
     51 CB         26.3600   -0.5604  -11.5865 C.3       8 UNK        -0.2000 
     52 C          28.7948    0.0639  -11.8742 C.2       8 UNK         0.4941 
     53 O          29.1950   -0.0452  -13.0339 O.2       8 UNK        -0.5273 
     54 N          29.5298   -0.2454  -10.7989 N.am      9 UNK        -0.4262 
     55 CA         30.9290   -0.6831  -10.8346 C.3       9 UNK         0.0264 
     56 CB         31.0445   -2.0362  -10.1090 C.3       9 UNK        -0.1955 
     57 C          31.8682    0.3666  -10.2103 C.2       9 UNK         0.5031 
     58 O          33.0687    0.1094  -10.1111 O.2       9 UNK        -0.5390 
     59 N          31.3133    1.5201   -9.8030 N.am      10 UNK        -0.4204 
     60 CA         31.9647    2.6446   -9.1223 C.3       10 UNK         0.0237 
     61 CB         32.9690    3.3454  -10.0626 C.3       10 UNK        -0.1985 
     62 C          32.5788    2.2719   -7.7558 C.2       10 UNK         0.4970 
     63 O          33.5795    2.8714   -7.3575 O.2       10 UNK        -0.4914 
     64 N          31.9755    1.2999   -7.0566 N.am      11 UNK        -0.4285 
     65 CA         32.4296    0.8157   -5.7403 C.3       11 UNK         0.1007 
     66 C          32.1385    1.7761   -4.5476 C.2       11 UNK         0.5703 
     67 N          31.4452    2.8945   -4.7309 N.am      11 UNK        -0.7361 
     68 O          32.5677    1.5073   -3.4284 O.2       11 UNK        -0.4986 
     69 C69        31.9334   -0.6293   -5.4628 C.3       12 UNK        -0.0947 
     70 S70        32.6486   -1.8163   -6.6500 S.3       12 UNK        -0.2240 
     71 C71        33.0116   -3.2562   -5.5920 C.3       12 UNK         0.0194 
     72 H72        29.7872    0.9978    1.1474 H         1 UNK         0.0906 
     73 H73        28.1145    0.8124    1.7091 H         1 UNK         0.0906 
     74 H74        29.4413    0.8481    2.8621 H         1 UNK         0.0906 
     75 H75        29.2208   -2.6453    0.5786 H         1 UNK         0.3140 
     76 H76        29.3756   -0.1398   -0.8230 H         1 UNK         0.1085 
     77 H77        28.7982   -1.5372   -2.8210 H         1 UNK         0.0836 
     78 H78        30.1745   -2.1059   -1.9317 H         1 UNK         0.0836 
     79 H79        29.4042   -5.7708   -1.8011 H         1 UNK         0.0731 
     80 H80        30.5300   -4.5082   -1.3704 H         1 UNK         0.0731 
     81 H81        31.9562   -3.5982   -3.0865 H         1 UNK         0.1312 
     82 H82        31.2420   -4.5133   -7.2096 H         1 UNK         0.1406 
     83 H83        28.4004   -5.7128   -4.2291 H         1 UNK         0.1631 
     84 H84        28.3777   -6.6374   -6.6759 H         1 UNK         0.0717 
     85 H85        29.3412   -5.8046   -7.8697 H         1 UNK         0.0717 
     86 H86        28.3366   -2.7075   -5.9357 H         1 UNK         0.0934 
     87 H87        29.2489   -2.9411   -7.4086 H         1 UNK         0.0934 
     88 H88        27.6269   -1.7873   -8.7656 H         1 UNK         0.0739 
     89 H89        25.7568   -2.3690   -6.8041 H         1 UNK         0.3093 
     90 H90        23.5196    0.2979   -6.9114 H         1 UNK         0.0818 
     91 H91        21.8166   -1.2944   -7.7592 H         1 UNK         0.0819 
     92 H92        22.8607   -0.7833   -9.0733 H         1 UNK         0.0819 
     93 H93        23.0786   -2.3737   -8.3567 H         1 UNK         0.0819 
     94 H94        23.1093   -2.2529   -5.8339 H         1 UNK         0.3041 
     95 H95        23.1842   -2.3716   -3.4741 H         1 UNK         0.0784 
     96 H96        24.9297   -4.1323   -2.9312 H         1 UNK         0.0793 
     97 H97        24.7027   -3.9848   -4.6645 H         1 UNK         0.0793 
     98 H98        26.1100   -3.2575   -3.9012 H         1 UNK         0.0793 
     99 H99        25.3779   -0.7412   -2.4900 H         1 UNK         0.3024 
    100 H100       24.7656    0.0889   -0.1519 H         1 UNK         0.1171 
    101 H101       24.8575   -0.7000    2.2048 H         1 UNK         0.0786 
    102 H102       23.3262   -1.1360    1.4655 H         1 UNK         0.0786 
    103 H103       24.5699   -2.3602    1.6847 H         1 UNK         0.0786 
    104 H104       26.7567   -1.9471    0.6265 H         1 UNK         0.2977 
    105 H105       26.9877    0.0078   -5.7738 H         1 UNK         0.3127 
    106 H106       29.4003    1.4159   -5.5225 H         1 UNK         0.0770 
    107 H107       26.5484    2.2840   -4.8222 H         1 UNK         0.0814 
    108 H108       27.6611    1.4051   -3.7767 H         1 UNK         0.0814 
    109 H109       28.0164    3.0606   -4.2375 H         1 UNK         0.0814 
    110 H110       26.7046    1.9059   -7.7312 H         1 UNK         0.2983 
    111 H111       28.0027    4.3097   -8.9472 H         1 UNK         0.0947 
    112 H112       25.6058    4.6062   -8.3882 H         1 UNK         0.0806 
    113 H113       25.1793    3.1583   -9.2969 H         1 UNK         0.0806 
    114 H114       25.8223    4.5680  -10.1304 H         1 UNK         0.0806 
    115 H115       26.5569    1.0904   -9.7303 H         1 UNK         0.3000 
    116 H116       27.1190    1.2264  -12.4825 H         1 UNK         0.0850 
    117 H117       26.4138   -1.1592  -12.4968 H         1 UNK         0.0810 
    118 H118       25.3382   -0.1895  -11.5037 H         1 UNK         0.0810 
    119 H119       26.5396   -1.2299  -10.7463 H         1 UNK         0.0810 
    120 H120       29.1389   -0.1243   -9.8689 H         1 UNK         0.3040 
    121 H121       31.2611   -0.8244  -11.8649 H         1 UNK         0.0766 
    122 H122       30.7827   -1.9523   -9.0549 H         1 UNK         0.0812 
    123 H123       32.0634   -2.4221  -10.1580 H         1 UNK         0.0812 
    124 H124       30.3923   -2.7851  -10.5581 H         1 UNK         0.0812 
    125 H125       30.3227    1.6337   -9.9662 H         1 UNK         0.3205 
    126 H126       31.1714    3.3614   -8.9070 H         1 UNK         0.0754 
    127 H127       33.3447    4.2678   -9.6182 H         1 UNK         0.0769 
    128 H128       32.5030    3.6122  -11.0112 H         1 UNK         0.0769 
    129 H129       33.8312    2.7133  -10.2776 H         1 UNK         0.0769 
    130 H130       31.1580    0.8440   -7.4454 H         1 UNK         0.2981 
    131 H131       33.5195    0.7668   -5.7824 H         1 UNK         0.0541 
    132 H132       31.2874    3.5047   -3.9454 H         1 UNK         0.3459 
    133 H133       31.0661    3.1325   -5.6374 H         1 UNK         0.3459 
    134 H134       30.8455   -0.6877   -5.5168 H         1 UNK         0.0612 
    135 H135       32.2067   -0.9452   -4.4545 H         1 UNK         0.0612 
    136 H136       33.5798   -2.9349   -4.7177 H         1 UNK         0.0624 
    137 H137       33.6560   -3.9421   -6.1435 H         1 UNK         0.0624 
@<TRIPOS>BOND
     1    1    2 1    
     2    1   72 1    
     3    1   73 1    
     4    1   74 1    
     5    2    3 2    
     6    2    4 am   BACKBONE|DICT|INTERRES
     7    4    5 1    
     8    4   75 1    
     9    5    6 1    
    10    5   35 1    
    11    5   76 1    
    12    6    7 1    
    13    6   77 1    
    14    6   78 1    
    15    7    8 1    
    16    8    9 1    
    17    8   79 1    
    18    8   80 1    
    19    9   10 ar   
    20    9   14 ar   
    21   10   11 ar   
    22   10   81 1    
    23   11   12 ar   
    24   11   71 1    
    25   12   13 ar   
    26   12   82 1    
    27   13   14 ar   
    28   13   15 1    
    29   14   83 1    
    30   15   16 1    
    31   15   84 1    
    32   15   85 1    
    33   16   17 1    
    34   17   18 1    
    35   17   86 1    
    36   17   87 1    
    37   18   19 1    
    38   18   37 1    
    39   18   88 1    
    40   19   20 am   BACKBONE|DICT|INTERRES
    41   19   89 1    
    42   20   21 2    
    43   20   22 1    
    44   22   23 1    
    45   22   24 1    
    46   22   90 1    
    47   23   91 1    
    48   23   92 1    
    49   23   93 1    
    50   24   25 am   BACKBONE|DICT|INTERRES
    51   24   94 1    
    52   25   26 2    
    53   25   27 1    
    54   27   28 1    
    55   27   29 1    
    56   27   95 1    
    57   28   96 1    
    58   28   97 1    
    59   28   98 1    
    60   29   30 am   BACKBONE|DICT|INTERRES
    61   29   99 1    
    62   30   31 2    
    63   30   32 1    
    64   32   33 1    
    65   32   34 1    
    66   32  100 1    
    67   33  101 1    
    68   33  102 1    
    69   33  103 1    
    70   34   35 am   BACKBONE|DICT|INTERRES
    71   34  104 1    
    72   35   36 2    
    73   37   38 2    
    74   37   39 am   BACKBONE|DICT|INTERRES
    75   39   40 1    
    76   39  105 1    
    77   40   41 1    
    78   40   42 1    
    79   40  106 1    
    80   41  107 1    
    81   41  108 1    
    82   41  109 1    
    83   42   43 2    
    84   42   44 am   BACKBONE|DICT|INTERRES
    85   44   45 1    
    86   44  110 1    
    87   45   46 1    
    88   45   47 1    
    89   45  111 1    
    90   46  112 1    
    91   46  113 1    
    92   46  114 1    
    93   47   48 2    
    94   47   49 am   BACKBONE|DICT|INTERRES
    95   49   50 1    
    96   49  115 1    
    97   50   51 1    
    98   50   52 1    
    99   50  116 1    
   100   51  117 1    
   101   51  118 1    
   102   51  119 1    
   103   52   53 2    
   104   52   54 am   BACKBONE|DICT|INTERRES
   105   54   55 1    
   106   54  120 1    
   107   55   56 1    
   108   55   57 1    
   109   55  121 1    
   110   56  122 1    
   111   56  123 1    
   112   56  124 1    
   113   57   58 2    
   114   57   59 am   BACKBONE|DICT|INTERRES
   115   59   60 1    
   116   59  125 1    
   117   60   61 1    
   118   60   62 1    
   119   60  126 1    
   120   61  127 1    
   121   61  128 1    
   122   61  129 1    
   123   62   63 2    
   124   62   64 am   BACKBONE|DICT|INTERRES
   125   64   65 1    
   126   64  130 1    
   127   65   66 1    
   128   65   69 1    
   129   65  131 1    
   130   66   67 am   BACKBONE|DICT|INTERRES
   131   66   68 2    
   132   67  132 1    
   133   67  133 1    
   134   69   70 1    
   135   69  134 1    
   136   69  135 1    
   137   70   71 1    
   138   71  136 1    
   139   71  137 1    
@<TRIPOS>SUBSTRUCTURE
     1 UNK         1 GROUP             0       ****    0 ROOT    
