@<TRIPOS>MOLECULE
3R137
137   139    1
SMALL
USER_CHARGES


@<TRIPOS>ATOM
      1 CA         27.9809   -6.2504    0.8822 C.3       0 UNK        -0.2020 
      2 C          27.6068   -4.8854    0.3255 C.2       0 UNK         0.4855 
      3 O          27.6741   -4.6913   -0.8864 O.2       0 UNK        -0.5197 
      4 N          27.2009   -3.9590    1.2056 N.am      1 UNK        -0.4892 
      5 CA         26.8102   -2.5519    0.9969 C.3       1 UNK         0.0835 
      6 C6         28.0027   -1.6038    0.6591 C.3       12 UNK        -0.0855 
      7 S7         28.3912   -1.3456   -1.1105 S.3       12 UNK        -0.2931 
      8 C8         29.9626   -2.2389   -1.2778 C.3       12 UNK         0.0378 
      9 C9         30.3230   -2.4469   -2.7408 C.ar      12 UNK        -0.0802 
     10 C10        31.3105   -1.6674   -3.3484 C.ar      12 UNK        -0.0944 
     11 C11        31.6825   -1.9010   -4.6761 C.ar      12 UNK        -0.0787 
     12 C12        31.0466   -2.9148   -5.4026 C.ar      12 UNK        -0.0862 
     13 C13        30.0497   -3.6961   -4.8066 C.ar      12 UNK        -0.0733 
     14 C14        29.6915   -3.4524   -3.4776 C.ar      12 UNK        -0.0832 
     15 C15        29.4052   -4.8509   -5.5650 C.3       12 UNK         0.0240 
     16 S16        28.3589   -4.3160   -6.9553 S.3       12 UNK        -0.2522 
     17 C17        26.9787   -3.4623   -6.1172 C.3       12 UNK        -0.0967 
     18 CA         26.5492   -2.1942   -6.8947 C.3       5 UNK         0.0660 
     19 N          25.2021   -1.7396   -6.5445 N.am      5 UNK        -0.4015 
     20 C          24.4810   -0.8876   -7.2899 C.2       4 UNK         0.4946 
     21 O          24.8587   -0.4376   -8.3708 O.2       4 UNK        -0.5353 
     22 CA         23.1288   -0.4226   -6.7227 C.3       4 UNK         0.0277 
     23 CB         22.0265   -1.4444   -7.0433 C.3       4 UNK        -0.1981 
     24 N          23.1716   -0.1790   -5.2802 N.am      4 UNK        -0.4209 
     25 C          23.9152    0.7706   -4.6942 C.2       3 UNK         0.4942 
     26 O          24.5800    1.5984   -5.3153 O.2       3 UNK        -0.5208 
     27 CA         23.9668    0.7653   -3.1563 C.3       3 UNK         0.0250 
     28 CB         22.8699    1.6735   -2.5788 C.3       3 UNK        -0.1990 
     29 N          23.8666   -0.5693   -2.5523 N.am      3 UNK        -0.4232 
     30 C          24.6842   -1.5999   -2.8108 C.2       2 UNK         0.4993 
     31 O          25.5997   -1.5604   -3.6369 O.2       2 UNK        -0.5286 
     32 CA         24.4252   -2.8967   -2.0286 C.3       2 UNK         0.0209 
     33 CB         24.4493   -4.1227   -2.9584 C.3       2 UNK        -0.1931 
     34 N          25.4376   -3.0673   -0.9918 N.am      2 UNK        -0.4546 
     35 C          25.5575   -2.3267    0.1153 C.2       1 UNK         0.5154 
     36 O          24.7182   -1.4932    0.4627 O.2       1 UNK        -0.5181 
     37 C          27.5635   -1.0487   -6.7423 C.2       5 UNK         0.5014 
     38 O          28.3562   -0.8319   -7.6569 O.2       5 UNK        -0.5248 
     39 N          27.4747   -0.2999   -5.6324 N.am      6 UNK        -0.4434 
     40 CA         28.3051    0.8790   -5.3647 C.3       6 UNK         0.0363 
     41 CB         27.9838    1.4314   -3.9687 C.3       6 UNK        -0.1936 
     42 C          28.1701    1.9873   -6.4277 C.2       6 UNK         0.5081 
     43 O          29.1497    2.6764   -6.7109 O.2       6 UNK        -0.5248 
     44 N          26.9666    2.1397   -6.9968 N.am      7 UNK        -0.4718 
     45 CA         26.6889    3.0413   -8.1131 C.3       7 UNK         0.0273 
     46 CB         25.1786    3.3215   -8.1789 C.3       7 UNK        -0.1935 
     47 C          27.1980    2.4952   -9.4588 C.2       7 UNK         0.5018 
     48 O          27.7612    3.2632  -10.2400 O.2       7 UNK        -0.5186 
     49 N          26.9562    1.2038   -9.7277 N.am      8 UNK        -0.4240 
     50 CA         27.2625    0.5603  -11.0077 C.3       8 UNK         0.0235 
     51 CB         26.4362   -0.7285  -11.1495 C.3       8 UNK        -0.2000 
     52 C          28.7544    0.2586  -11.2186 C.2       8 UNK         0.4941 
     53 O          29.2535    0.4648  -12.3267 O.2       8 UNK        -0.5273 
     54 N          29.4287   -0.2660  -10.1879 N.am      9 UNK        -0.4262 
     55 CA         30.8271   -0.6915  -10.2547 C.3       9 UNK         0.0264 
     56 CB         31.1067   -1.6891   -9.1182 C.3       9 UNK        -0.1955 
     57 C          31.7969    0.4970  -10.1795 C.2       9 UNK         0.5031 
     58 O          31.4852    1.5263   -9.5752 O.2       9 UNK        -0.5390 
     59 N          32.9911    0.3110  -10.7545 N.am      10 UNK        -0.4204 
     60 CA         34.1063    1.2568  -10.6949 C.3       10 UNK         0.0237 
     61 CB         35.0177    1.0349  -11.9172 C.3       10 UNK        -0.1985 
     62 C          34.8583    1.1155   -9.3585 C.2       10 UNK         0.4970 
     63 O          35.9954    0.6404   -9.3374 O.2       10 UNK        -0.4914 
     64 N          34.1898    1.4957   -8.2634 N.am      11 UNK        -0.4285 
     65 CA         34.7030    1.4066   -6.8860 C.3       11 UNK         0.1007 
     66 C          35.8954    2.3547   -6.5620 C.2       11 UNK         0.5703 
     67 N          36.1696    3.3795   -7.3610 N.am      11 UNK        -0.7361 
     68 O          36.5872    2.1513   -5.5670 O.2       11 UNK        -0.4986 
     69 C69        33.5766    1.5798   -5.8333 C.3       12 UNK        -0.0947 
     70 S70        32.1682    0.4436   -6.0562 S.3       12 UNK        -0.2240 
     71 C71        32.8027   -1.0809   -5.2987 C.3       12 UNK         0.0194 
     72 H72        27.3402   -7.0189    0.4506 H         1 UNK         0.0906 
     73 H73        29.0139   -6.4867    0.6280 H         1 UNK         0.0906 
     74 H74        27.8804   -6.2939    1.9664 H         1 UNK         0.0906 
     75 H75        27.1445   -4.2452    2.1739 H         1 UNK         0.3140 
     76 H76        26.4814   -2.2522    1.9939 H         1 UNK         0.1085 
     77 H77        27.7809   -0.6144    1.0629 H         1 UNK         0.0836 
     78 H78        28.9003   -1.9259    1.1891 H         1 UNK         0.0836 
     79 H79        30.7468   -1.6840   -0.7607 H         1 UNK         0.0731 
     80 H80        29.8946   -3.2074   -0.7820 H         1 UNK         0.0731 
     81 H81        31.8049   -0.8894   -2.7827 H         1 UNK         0.1312 
     82 H82        31.3360   -3.1077   -6.4264 H         1 UNK         0.1406 
     83 H83        28.9306   -4.0574   -3.0040 H         1 UNK         0.1631 
     84 H84        28.8086   -5.4726   -4.8953 H         1 UNK         0.0717 
     85 H85        30.1932   -5.4972   -5.9539 H         1 UNK         0.0717 
     86 H86        26.1482   -4.1677   -6.0620 H         1 UNK         0.0934 
     87 H87        27.2401   -3.2237   -5.0844 H         1 UNK         0.0934 
     88 H88        26.5179   -2.4556   -7.9553 H         1 UNK         0.0739 
     89 H89        24.8821   -1.9712   -5.6132 H         1 UNK         0.3093 
     90 H90        22.8738    0.5200   -7.2122 H         1 UNK         0.0818 
     91 H91        21.0480   -1.0864   -6.7227 H         1 UNK         0.0819 
     92 H92        21.9663   -1.6266   -8.1173 H         1 UNK         0.0819 
     93 H93        22.2086   -2.4051   -6.5598 H         1 UNK         0.0819 
     94 H94        22.6444   -0.8059   -4.6903 H         1 UNK         0.3041 
     95 H95        24.9349    1.1749   -2.8634 H         1 UNK         0.0784 
     96 H96        22.9377    2.6798   -2.9951 H         1 UNK         0.0793 
     97 H97        21.8715    1.2950   -2.8019 H         1 UNK         0.0793 
     98 H98        22.9607    1.7670   -1.4963 H         1 UNK         0.0793 
     99 H99        23.1660   -0.6819   -1.8329 H         1 UNK         0.3024 
    100 H100       23.4425   -2.8439   -1.5547 H         1 UNK         0.1171 
    101 H101       23.7224   -4.0187   -3.7649 H         1 UNK         0.0786 
    102 H102       24.2026   -5.0347   -2.4146 H         1 UNK         0.0786 
    103 H103       25.4297   -4.2645   -3.4153 H         1 UNK         0.0786 
    104 H104       26.2148   -3.6936   -1.1974 H         1 UNK         0.2977 
    105 H105       26.8080   -0.5725   -4.9154 H         1 UNK         0.3127 
    106 H106       29.3423    0.5414   -5.3661 H         1 UNK         0.0770 
    107 H107       26.9692    1.8250   -3.9158 H         1 UNK         0.0814 
    108 H108       28.6627    2.2444   -3.7089 H         1 UNK         0.0814 
    109 H109       28.0895    0.6633   -3.2042 H         1 UNK         0.0814 
    110 H110       26.1869    1.6023   -6.6327 H         1 UNK         0.2983 
    111 H111       27.1990    3.9889   -7.9259 H         1 UNK         0.0947 
    112 H112       24.9425    4.0038   -8.9965 H         1 UNK         0.0806 
    113 H113       24.8219    3.7824   -7.2575 H         1 UNK         0.0806 
    114 H114       24.6038    2.4081   -8.3374 H         1 UNK         0.0806 
    115 H115       26.4522    0.6442   -9.0467 H         1 UNK         0.3000 
    116 H116       26.9529    1.2392  -11.8055 H         1 UNK         0.0850 
    117 H117       26.6385   -1.2221  -12.1010 H         1 UNK         0.0810 
    118 H118       25.3669   -0.5189  -11.1147 H         1 UNK         0.0810 
    119 H119       26.6630   -1.4413  -10.3556 H         1 UNK         0.0810 
    120 H120       28.9650   -0.3776   -9.2857 H         1 UNK         0.3040 
    121 H121       30.9829   -1.2064  -11.2053 H         1 UNK         0.0766 
    122 H122       32.1335   -2.0550   -9.1521 H         1 UNK         0.0812 
    123 H123       30.4485   -2.5562   -9.1792 H         1 UNK         0.0812 
    124 H124       30.9565   -1.2305   -8.1410 H         1 UNK         0.0812 
    125 H125       33.1823   -0.5771  -11.1966 H         1 UNK         0.3205 
    126 H126       33.7192    2.2768  -10.7511 H         1 UNK         0.0754 
    127 H127       35.8571    1.7317  -11.9093 H         1 UNK         0.0769 
    128 H128       34.4753    1.1950  -12.8493 H         1 UNK         0.0769 
    129 H129       35.4314    0.0257  -11.9395 H         1 UNK         0.0769 
    130 H130       33.2319    1.8110   -8.3700 H         1 UNK         0.2981 
    131 H131       35.0963    0.3949   -6.7694 H         1 UNK         0.0541 
    132 H132       36.9465    3.9828   -7.1415 H         1 UNK         0.3459 
    133 H133       35.6063    3.5570   -8.1767 H         1 UNK         0.3459 
    134 H134       33.1821    2.5967   -5.8757 H         1 UNK         0.0612 
    135 H135       33.9658    1.4532   -4.8214 H         1 UNK         0.0612 
    136 H136       33.3263   -1.6629   -6.0585 H         1 UNK         0.0624 
    137 H137       33.5427   -0.8401   -4.5342 H         1 UNK         0.0624 
@<TRIPOS>BOND
     1    1    2 1    
     2    1   72 1    
     3    1   73 1    
     4    1   74 1    
     5    2    3 2    
     6    2    4 am   BACKBONE|DICT|INTERRES
     7    4    5 1    
     8    4   75 1    
     9    5    6 1    
    10    5   35 1    
    11    5   76 1    
    12    6    7 1    
    13    6   77 1    
    14    6   78 1    
    15    7    8 1    
    16    8    9 1    
    17    8   79 1    
    18    8   80 1    
    19    9   10 ar   
    20    9   14 ar   
    21   10   11 ar   
    22   10   81 1    
    23   11   12 ar   
    24   11   71 1    
    25   12   13 ar   
    26   12   82 1    
    27   13   14 ar   
    28   13   15 1    
    29   14   83 1    
    30   15   16 1    
    31   15   84 1    
    32   15   85 1    
    33   16   17 1    
    34   17   18 1    
    35   17   86 1    
    36   17   87 1    
    37   18   19 1    
    38   18   37 1    
    39   18   88 1    
    40   19   20 am   BACKBONE|DICT|INTERRES
    41   19   89 1    
    42   20   21 2    
    43   20   22 1    
    44   22   23 1    
    45   22   24 1    
    46   22   90 1    
    47   23   91 1    
    48   23   92 1    
    49   23   93 1    
    50   24   25 am   BACKBONE|DICT|INTERRES
    51   24   94 1    
    52   25   26 2    
    53   25   27 1    
    54   27   28 1    
    55   27   29 1    
    56   27   95 1    
    57   28   96 1    
    58   28   97 1    
    59   28   98 1    
    60   29   30 am   BACKBONE|DICT|INTERRES
    61   29   99 1    
    62   30   31 2    
    63   30   32 1    
    64   32   33 1    
    65   32   34 1    
    66   32  100 1    
    67   33  101 1    
    68   33  102 1    
    69   33  103 1    
    70   34   35 am   BACKBONE|DICT|INTERRES
    71   34  104 1    
    72   35   36 2    
    73   37   38 2    
    74   37   39 am   BACKBONE|DICT|INTERRES
    75   39   40 1    
    76   39  105 1    
    77   40   41 1    
    78   40   42 1    
    79   40  106 1    
    80   41  107 1    
    81   41  108 1    
    82   41  109 1    
    83   42   43 2    
    84   42   44 am   BACKBONE|DICT|INTERRES
    85   44   45 1    
    86   44  110 1    
    87   45   46 1    
    88   45   47 1    
    89   45  111 1    
    90   46  112 1    
    91   46  113 1    
    92   46  114 1    
    93   47   48 2    
    94   47   49 am   BACKBONE|DICT|INTERRES
    95   49   50 1    
    96   49  115 1    
    97   50   51 1    
    98   50   52 1    
    99   50  116 1    
   100   51  117 1    
   101   51  118 1    
   102   51  119 1    
   103   52   53 2    
   104   52   54 am   BACKBONE|DICT|INTERRES
   105   54   55 1    
   106   54  120 1    
   107   55   56 1    
   108   55   57 1    
   109   55  121 1    
   110   56  122 1    
   111   56  123 1    
   112   56  124 1    
   113   57   58 2    
   114   57   59 am   BACKBONE|DICT|INTERRES
   115   59   60 1    
   116   59  125 1    
   117   60   61 1    
   118   60   62 1    
   119   60  126 1    
   120   61  127 1    
   121   61  128 1    
   122   61  129 1    
   123   62   63 2    
   124   62   64 am   BACKBONE|DICT|INTERRES
   125   64   65 1    
   126   64  130 1    
   127   65   66 1    
   128   65   69 1    
   129   65  131 1    
   130   66   67 am   BACKBONE|DICT|INTERRES
   131   66   68 2    
   132   67  132 1    
   133   67  133 1    
   134   69   70 1    
   135   69  134 1    
   136   69  135 1    
   137   70   71 1    
   138   71  136 1    
   139   71  137 1    
@<TRIPOS>SUBSTRUCTURE
     1 UNK         1 GROUP             0       ****    0 ROOT    
