@<TRIPOS>MOLECULE
3R137
137   139    1
SMALL
USER_CHARGES


@<TRIPOS>ATOM
      1 CA         30.5372    0.1908    1.6815 C.3       0 UNK        -0.2020 
      2 C          30.0319    0.1797    0.2467 C.2       0 UNK         0.4855 
      3 O          29.9080    1.2400   -0.3660 O.2       0 UNK        -0.5197 
      4 N          29.7359   -1.0115   -0.2906 N.am      1 UNK        -0.4892 
      5 CA         29.2612   -1.2231   -1.6683 C.3       1 UNK         0.0835 
      6 C6         29.4092   -2.7022   -2.1121 C.3       12 UNK        -0.0855 
      7 S7         31.1076   -3.3339   -1.8688 S.3       12 UNK        -0.2931 
      8 C8         31.0315   -4.9638   -2.6769 C.3       12 UNK         0.0378 
      9 C9         31.0338   -4.8388   -4.1926 C.ar      12 UNK        -0.0802 
     10 C10        32.2103   -4.4982   -4.8660 C.ar      12 UNK        -0.0944 
     11 C11        32.2154   -4.3501   -6.2556 C.ar      12 UNK        -0.0787 
     12 C12        31.0333   -4.5555   -6.9732 C.ar      12 UNK        -0.0862 
     13 C13        29.8519   -4.9109   -6.3139 C.ar      12 UNK        -0.0733 
     14 C14        29.8634   -5.0614   -4.9224 C.ar      12 UNK        -0.0832 
     15 C15        28.5729   -5.1304   -7.1174 C.3       12 UNK         0.0240 
     16 S16        27.1014   -4.3542   -6.3683 S.3       12 UNK        -0.2522 
     17 C17        27.5828   -2.5939   -6.3337 C.3       12 UNK        -0.0967 
     18 CA         26.8146   -1.7418   -7.3709 C.3       5 UNK         0.0660 
     19 N          25.3667   -1.8897   -7.2201 N.am      5 UNK        -0.4015 
     20 C          24.3981   -1.2092   -7.8486 C.2       4 UNK         0.4946 
     21 O          24.5993   -0.4235   -8.7758 O.2       4 UNK        -0.5353 
     22 CA         22.9737   -1.3713   -7.2745 C.3       4 UNK         0.0277 
     23 CB         22.1667   -2.3695   -8.1191 C.3       4 UNK        -0.1981 
     24 N          22.9438   -1.7867   -5.8596 N.am      4 UNK        -0.4209 
     25 C          23.5528   -1.1333   -4.8571 C.2       3 UNK         0.4942 
     26 O          24.1372   -0.0561   -5.0126 O.2       3 UNK        -0.5208 
     27 CA         23.6055   -1.8280   -3.4872 C.3       3 UNK         0.0250 
     28 CB         24.1492   -3.2704   -3.5973 C.3       3 UNK        -0.1990 
     29 N          24.4836   -1.0237   -2.6438 N.am      3 UNK        -0.4232 
     30 C          24.6724   -1.1113   -1.3269 C.2       2 UNK         0.4993 
     31 O          24.1164   -1.9370   -0.5997 O.2       2 UNK        -0.5286 
     32 CA         25.6732   -0.1058   -0.7324 C.3       2 UNK         0.0209 
     33 CB         25.3328    0.2564    0.7251 C.3       2 UNK        -0.1931 
     34 N          27.0438   -0.6156   -0.7837 N.am      2 UNK        -0.4546 
     35 C          27.8120   -0.7252   -1.8793 C.2       1 UNK         0.5154 
     36 O          27.4294   -0.4326   -3.0132 O.2       1 UNK        -0.5181 
     37 C          27.2981   -0.2804   -7.2747 C.2       5 UNK         0.5014 
     38 O          28.2588    0.0661   -7.9630 O.2       5 UNK        -0.5248 
     39 N          26.6304    0.5522   -6.4588 N.am      6 UNK        -0.4434 
     40 CA         26.9237    1.9780   -6.2878 C.3       6 UNK         0.0363 
     41 CB         26.0785    2.5456   -5.1376 C.3       6 UNK        -0.1936 
     42 C          26.7262    2.8087   -7.5661 C.2       6 UNK         0.5081 
     43 O          27.4422    3.7915   -7.7571 O.2       6 UNK        -0.5248 
     44 N          25.7825    2.3978   -8.4244 N.am      7 UNK        -0.4718 
     45 CA         25.5662    3.0000   -9.7408 C.3       7 UNK         0.0273 
     46 CB         24.1107    2.7657  -10.1764 C.3       7 UNK        -0.1935 
     47 C          26.5415    2.4437  -10.7914 C.2       7 UNK         0.5018 
     48 O          26.8835    3.1611  -11.7321 O.2       7 UNK        -0.5186 
     49 N          26.9567    1.1801  -10.6242 N.am      8 UNK        -0.4240 
     50 CA         27.8546    0.4742  -11.5367 C.3       8 UNK         0.0235 
     51 CB         27.7090   -1.0441  -11.3385 C.3       8 UNK        -0.2000 
     52 C          29.3219    0.9051  -11.3848 C.2       8 UNK         0.4941 
     53 O          29.9641    1.1959  -12.3953 O.2       8 UNK        -0.5273 
     54 N          29.8337    0.9161  -10.1454 N.am      9 UNK        -0.4262 
     55 CA         31.2504    1.1688   -9.8517 C.3       9 UNK         0.0264 
     56 CB         32.0896   -0.0810  -10.1881 C.3       9 UNK        -0.1955 
     57 C          31.5384    1.6089   -8.4076 C.2       9 UNK         0.5031 
     58 O          32.5702    2.2459   -8.1882 O.2       9 UNK        -0.5390 
     59 N          30.6829    1.2372   -7.4433 N.am      10 UNK        -0.4204 
     60 CA         30.7880    1.4348   -5.9874 C.3       10 UNK         0.0237 
     61 CB         30.8188    2.9298   -5.6125 C.3       10 UNK        -0.1985 
     62 C          31.9323    0.6620   -5.3070 C.2       10 UNK         0.4970 
     63 O          31.7016    0.0731   -4.2515 O.2       10 UNK        -0.4914 
     64 N          33.1225    0.6675   -5.9180 N.am      11 UNK        -0.4285 
     65 CA         34.3280   -0.0758   -5.5123 C.3       11 UNK         0.1007 
     66 C          34.9653    0.3899   -4.1669 C.2       11 UNK         0.5703 
     67 N          34.6332    1.5675   -3.6505 N.am      11 UNK        -0.7361 
     68 O          35.8050   -0.3046   -3.5982 O.2       11 UNK        -0.4986 
     69 C69        34.1325   -1.6179   -5.5868 C.3       12 UNK        -0.0947 
     70 S70        33.6314   -2.1824   -7.2487 S.3       12 UNK        -0.2240 
     71 C71        33.4976   -3.9773   -6.9856 C.3       12 UNK         0.0194 
     72 H72        29.8687    0.7783    2.3103 H         1 UNK         0.0906 
     73 H73        31.5291    0.6399    1.7259 H         1 UNK         0.0906 
     74 H74        30.6015   -0.8134    2.1003 H         1 UNK         0.0906 
     75 H75        29.8927   -1.8535    0.2459 H         1 UNK         0.3140 
     76 H76        29.8907   -0.6180   -2.3252 H         1 UNK         0.1085 
     77 H77        28.7188   -3.3441   -1.5614 H         1 UNK         0.0836 
     78 H78        29.1503   -2.8013   -3.1683 H         1 UNK         0.0836 
     79 H79        31.8958   -5.5519   -2.3648 H         1 UNK         0.0731 
     80 H80        30.1513   -5.5054   -2.3268 H         1 UNK         0.0731 
     81 H81        33.1189   -4.3327   -4.3032 H         1 UNK         0.1312 
     82 H82        31.0367   -4.4368   -8.0483 H         1 UNK         0.1406 
     83 H83        28.9539   -5.3352   -4.4051 H         1 UNK         0.1631 
     84 H84        28.6836   -4.7472   -8.1331 H         1 UNK         0.0717 
     85 H85        28.3963   -6.2028   -7.2081 H         1 UNK         0.0717 
     86 H86        27.4026   -2.2235   -5.3216 H         1 UNK         0.0934 
     87 H87        28.6591   -2.5025   -6.4929 H         1 UNK         0.0934 
     88 H88        27.0640   -2.1049   -8.3686 H         1 UNK         0.0739 
     89 H89        25.0820   -2.5380   -6.5017 H         1 UNK         0.3093 
     90 H90        22.4903   -0.3942   -7.3392 H         1 UNK         0.0818 
     91 H91        21.1292   -2.4226   -7.7888 H         1 UNK         0.0819 
     92 H92        22.1547   -2.0712   -9.1686 H         1 UNK         0.0819 
     93 H93        22.5883   -3.3744   -8.0711 H         1 UNK         0.0819 
     94 H94        22.4742   -2.6578   -5.6562 H         1 UNK         0.3041 
     95 H95        22.6012   -1.8330   -3.0598 H         1 UNK         0.0784 
     96 H96        23.5055   -3.9009   -4.2109 H         1 UNK         0.0793 
     97 H97        25.1480   -3.2908   -4.0354 H         1 UNK         0.0793 
     98 H98        24.2109   -3.7498   -2.6204 H         1 UNK         0.0793 
     99 H99        24.9887   -0.3166   -3.1685 H         1 UNK         0.3024 
    100 H100       25.6247    0.8129   -1.3223 H         1 UNK         0.1171 
    101 H101       25.9974    1.0322    1.1060 H         1 UNK         0.0786 
    102 H102       24.3135    0.6371    0.8037 H         1 UNK         0.0786 
    103 H103       25.4104   -0.6064    1.3880 H         1 UNK         0.0786 
    104 H104       27.4513   -0.8968    0.0959 H         1 UNK         0.2977 
    105 H105       25.8294    0.2012   -5.9398 H         1 UNK         0.3127 
    106 H106       27.9697    2.0708   -6.0039 H         1 UNK         0.0770 
    107 H107       25.0116    2.4959   -5.3584 H         1 UNK         0.0814 
    108 H108       26.3250    3.5918   -4.9520 H         1 UNK         0.0814 
    109 H109       26.2558    2.0009   -4.2098 H         1 UNK         0.0814 
    110 H110       25.2547    1.5579   -8.2148 H         1 UNK         0.2983 
    111 H111       25.7292    4.0783   -9.6743 H         1 UNK         0.0947 
    112 H112       23.9119    3.2395  -11.1386 H         1 UNK         0.0806 
    113 H113       23.4085    3.1871   -9.4569 H         1 UNK         0.0806 
    114 H114       23.8843    1.7043  -10.2841 H         1 UNK         0.0806 
    115 H115       26.6166    0.6680   -9.8221 H         1 UNK         0.3000 
    116 H116       27.5448    0.7050  -12.5587 H         1 UNK         0.0850 
    117 H117       26.6718   -1.3630  -11.4444 H         1 UNK         0.0810 
    118 H118       28.0610   -1.3626  -10.3579 H         1 UNK         0.0810 
    119 H119       28.2933   -1.5881  -12.0819 H         1 UNK         0.0810 
    120 H120       29.2228    0.6722   -9.3689 H         1 UNK         0.3040 
    121 H121       31.5871    1.9907  -10.4876 H         1 UNK         0.0766 
    122 H122       32.0393   -0.3264  -11.2488 H         1 UNK         0.0812 
    123 H123       31.7515   -0.9525   -9.6261 H         1 UNK         0.0812 
    124 H124       33.1423    0.0731   -9.9462 H         1 UNK         0.0812 
    125 H125       29.8623    0.6980   -7.7149 H         1 UNK         0.3205 
    126 H126       29.8725    1.0101   -5.5752 H         1 UNK         0.0754 
    127 H127       31.7355    3.4166   -5.9458 H         1 UNK         0.0769 
    128 H128       30.7583    3.0591   -4.5311 H         1 UNK         0.0769 
    129 H129       29.9787    3.4679   -6.0517 H         1 UNK         0.0769 
    130 H130       33.1991    1.2175   -6.7699 H         1 UNK         0.2981 
    131 H131       35.0784    0.1826   -6.2600 H         1 UNK         0.0541 
    132 H132       35.0595    1.8668   -2.7880 H         1 UNK         0.3459 
    133 H133       33.9544    2.1517   -4.1107 H         1 UNK         0.3459 
    134 H134       33.3876   -1.9400   -4.8587 H         1 UNK         0.0612 
    135 H135       35.0582   -2.1364   -5.3316 H         1 UNK         0.0612 
    136 H136       33.5235   -4.4743   -7.9564 H         1 UNK         0.0624 
    137 H137       34.3709   -4.3352   -6.4382 H         1 UNK         0.0624 
@<TRIPOS>BOND
     1    1    2 1    
     2    1   72 1    
     3    1   73 1    
     4    1   74 1    
     5    2    3 2    
     6    2    4 am   BACKBONE|DICT|INTERRES
     7    4    5 1    
     8    4   75 1    
     9    5    6 1    
    10    5   35 1    
    11    5   76 1    
    12    6    7 1    
    13    6   77 1    
    14    6   78 1    
    15    7    8 1    
    16    8    9 1    
    17    8   79 1    
    18    8   80 1    
    19    9   10 ar   
    20    9   14 ar   
    21   10   11 ar   
    22   10   81 1    
    23   11   12 ar   
    24   11   71 1    
    25   12   13 ar   
    26   12   82 1    
    27   13   14 ar   
    28   13   15 1    
    29   14   83 1    
    30   15   16 1    
    31   15   84 1    
    32   15   85 1    
    33   16   17 1    
    34   17   18 1    
    35   17   86 1    
    36   17   87 1    
    37   18   19 1    
    38   18   37 1    
    39   18   88 1    
    40   19   20 am   BACKBONE|DICT|INTERRES
    41   19   89 1    
    42   20   21 2    
    43   20   22 1    
    44   22   23 1    
    45   22   24 1    
    46   22   90 1    
    47   23   91 1    
    48   23   92 1    
    49   23   93 1    
    50   24   25 am   BACKBONE|DICT|INTERRES
    51   24   94 1    
    52   25   26 2    
    53   25   27 1    
    54   27   28 1    
    55   27   29 1    
    56   27   95 1    
    57   28   96 1    
    58   28   97 1    
    59   28   98 1    
    60   29   30 am   BACKBONE|DICT|INTERRES
    61   29   99 1    
    62   30   31 2    
    63   30   32 1    
    64   32   33 1    
    65   32   34 1    
    66   32  100 1    
    67   33  101 1    
    68   33  102 1    
    69   33  103 1    
    70   34   35 am   BACKBONE|DICT|INTERRES
    71   34  104 1    
    72   35   36 2    
    73   37   38 2    
    74   37   39 am   BACKBONE|DICT|INTERRES
    75   39   40 1    
    76   39  105 1    
    77   40   41 1    
    78   40   42 1    
    79   40  106 1    
    80   41  107 1    
    81   41  108 1    
    82   41  109 1    
    83   42   43 2    
    84   42   44 am   BACKBONE|DICT|INTERRES
    85   44   45 1    
    86   44  110 1    
    87   45   46 1    
    88   45   47 1    
    89   45  111 1    
    90   46  112 1    
    91   46  113 1    
    92   46  114 1    
    93   47   48 2    
    94   47   49 am   BACKBONE|DICT|INTERRES
    95   49   50 1    
    96   49  115 1    
    97   50   51 1    
    98   50   52 1    
    99   50  116 1    
   100   51  117 1    
   101   51  118 1    
   102   51  119 1    
   103   52   53 2    
   104   52   54 am   BACKBONE|DICT|INTERRES
   105   54   55 1    
   106   54  120 1    
   107   55   56 1    
   108   55   57 1    
   109   55  121 1    
   110   56  122 1    
   111   56  123 1    
   112   56  124 1    
   113   57   58 2    
   114   57   59 am   BACKBONE|DICT|INTERRES
   115   59   60 1    
   116   59  125 1    
   117   60   61 1    
   118   60   62 1    
   119   60  126 1    
   120   61  127 1    
   121   61  128 1    
   122   61  129 1    
   123   62   63 2    
   124   62   64 am   BACKBONE|DICT|INTERRES
   125   64   65 1    
   126   64  130 1    
   127   65   66 1    
   128   65   69 1    
   129   65  131 1    
   130   66   67 am   BACKBONE|DICT|INTERRES
   131   66   68 2    
   132   67  132 1    
   133   67  133 1    
   134   69   70 1    
   135   69  134 1    
   136   69  135 1    
   137   70   71 1    
   138   71  136 1    
   139   71  137 1    
@<TRIPOS>SUBSTRUCTURE
     1 UNK         1 GROUP             0       ****    0 ROOT    
