@<TRIPOS>MOLECULE
3R137
137   139    1
SMALL
USER_CHARGES


@<TRIPOS>ATOM
      1 CA         27.7598    0.8462   -1.3065 C.3       0 UNK        -0.2020 
      2 C          27.4780   -0.5370   -1.8712 C.2       0 UNK         0.4855 
      3 O          27.0269   -0.6536   -3.0124 O.2       0 UNK        -0.5197 
      4 N          27.7343   -1.5797   -1.0695 N.am      1 UNK        -0.4892 
      5 CA         27.4856   -2.9856   -1.4149 C.3       1 UNK         0.0835 
      6 C6         28.1981   -3.9804   -0.4633 C.3       12 UNK        -0.0855 
      7 S7         29.9736   -3.6355   -0.2216 S.3       12 UNK        -0.2931 
      8 C8         30.7523   -4.7147   -1.4646 C.3       12 UNK         0.0378 
      9 C9         30.7750   -4.0663   -2.8411 C.ar      12 UNK        -0.0802 
     10 C10        31.6284   -2.9838   -3.0818 C.ar      12 UNK        -0.0944 
     11 C11        31.6982   -2.3893   -4.3446 C.ar      12 UNK        -0.0787 
     12 C12        30.8751   -2.8858   -5.3638 C.ar      12 UNK        -0.0862 
     13 C13        30.0283   -3.9760   -5.1484 C.ar      12 UNK        -0.0733 
     14 C14        29.9822   -4.5651   -3.8806 C.ar      12 UNK        -0.0832 
     15 C15        29.2251   -4.5391   -6.3184 C.3       12 UNK         0.0240 
     16 S16        27.4435   -4.7498   -5.9920 S.3       12 UNK        -0.2522 
     17 C17        26.9208   -3.1034   -5.4158 C.3       12 UNK        -0.0967 
     18 CA         26.7154   -2.0601   -6.5479 C.3       5 UNK         0.0660 
     19 N          25.5292   -1.2347   -6.2969 N.am      5 UNK        -0.4015 
     20 C          25.0802   -0.2029   -7.0217 C.2       4 UNK         0.4946 
     21 O          25.6497    0.2290   -8.0225 O.2       4 UNK        -0.5353 
     22 CA         23.7858    0.4923   -6.5569 C.3       4 UNK         0.0277 
     23 CB         22.5506   -0.1793   -7.1873 C.3       4 UNK        -0.1981 
     24 N          23.6312    0.6432   -5.0998 N.am      4 UNK        -0.4209 
     25 C          23.4991   -0.3073   -4.1630 C.2       3 UNK         0.4942 
     26 O          23.5140   -1.5147   -4.4104 O.2       3 UNK        -0.5208 
     27 CA         23.3594    0.2040   -2.7187 C.3       3 UNK         0.0250 
     28 CB         21.9602    0.8009   -2.4589 C.3       3 UNK        -0.1990 
     29 N          23.7188   -0.8045   -1.7140 N.am      3 UNK        -0.4232 
     30 C          23.0621   -1.9168   -1.3462 C.2       2 UNK         0.4993 
     31 O          21.9472   -2.2448   -1.7571 O.2       2 UNK        -0.5286 
     32 CA         23.7826   -2.7929   -0.3010 C.3       2 UNK         0.0209 
     33 CB         23.2379   -4.2370   -0.2299 C.3       2 UNK        -0.1931 
     34 N          25.2457   -2.7676   -0.4558 N.am      2 UNK        -0.4546 
     35 C          25.9746   -3.2893   -1.4579 C.2       1 UNK         0.5154 
     36 O          25.5150   -3.9634   -2.3782 O.2       1 UNK        -0.5181 
     37 C          27.9827   -1.2105   -6.7576 C.2       5 UNK         0.5014 
     38 O          28.6199   -1.3035   -7.8087 O.2       5 UNK        -0.5248 
     39 N          28.2977   -0.3694   -5.7623 N.am      6 UNK        -0.4434 
     40 CA         29.4579    0.5223   -5.7713 C.3       6 UNK         0.0363 
     41 CB         29.6314    1.1334   -4.3751 C.3       6 UNK        -0.1936 
     42 C          29.3961    1.6187   -6.8459 C.2       6 UNK         0.5081 
     43 O          30.4477    2.0466   -7.3210 O.2       6 UNK        -0.5248 
     44 N          28.1838    2.0459   -7.2225 N.am      7 UNK        -0.4718 
     45 CA         27.9589    3.0089   -8.3009 C.3       7 UNK         0.0273 
     46 CB         26.5604    3.6331   -8.1655 C.3       7 UNK        -0.1935 
     47 C          28.1480    2.3618   -9.6811 C.2       7 UNK         0.5018 
     48 O          28.8243    2.9418  -10.5299 O.2       7 UNK        -0.5186 
     49 N          27.5752    1.1638   -9.8680 N.am      8 UNK        -0.4240 
     50 CA         27.6649    0.3687  -11.0945 C.3       8 UNK         0.0235 
     51 CB         26.7008   -0.8256  -11.0041 C.3       8 UNK        -0.2000 
     52 C          29.0943   -0.1075  -11.3961 C.2       8 UNK         0.4941 
     53 O          29.5379   -0.0013  -12.5400 O.2       8 UNK        -0.5273 
     54 N          29.7942   -0.6029  -10.3664 N.am      9 UNK        -0.4262 
     55 CA         31.1905   -1.0411  -10.4550 C.3       9 UNK         0.0264 
     56 CB         31.4628   -2.0395   -9.3229 C.3       9 UNK        -0.1955 
     57 C          32.2046    0.1193  -10.4123 C.2       9 UNK         0.5031 
     58 O          33.3752   -0.1040  -10.7220 O.2       9 UNK        -0.5390 
     59 N          31.7500    1.3194  -10.0212 N.am      10 UNK        -0.4204 
     60 CA         32.4933    2.5810   -9.8950 C.3       10 UNK         0.0237 
     61 CB         33.0790    3.0235  -11.2531 C.3       10 UNK        -0.1985 
     62 C          33.5411    2.6108   -8.7616 C.2       10 UNK         0.4970 
     63 O          34.3378    3.5495   -8.7083 O.2       10 UNK        -0.4914 
     64 N          33.5111    1.6214   -7.8606 N.am      11 UNK        -0.4285 
     65 CA         34.3066    1.5732   -6.6232 C.3       11 UNK         0.1007 
     66 C          33.7446    2.4439   -5.4630 C.2       11 UNK         0.5703 
     67 N          32.5442    3.0002   -5.5639 N.am      11 UNK        -0.7361 
     68 O          34.4266    2.6416   -4.4602 O.2       11 UNK        -0.4986 
     69 C69        34.6284    0.1182   -6.1777 C.3       12 UNK        -0.0947 
     70 S70        33.2358   -1.0544   -6.2986 S.3       12 UNK        -0.2240 
     71 C71        32.6773   -1.2307   -4.5696 C.3       12 UNK         0.0194 
     72 H72        28.7962    1.1275   -1.4890 H         1 UNK         0.0906 
     73 H73        27.1159    1.5886   -1.7775 H         1 UNK         0.0906 
     74 H74        27.5803    0.8801   -0.2321 H         1 UNK         0.0906 
     75 H75        28.1566   -1.4223   -0.1649 H         1 UNK         0.3140 
     76 H76        27.8807   -3.1503   -2.4179 H         1 UNK         0.1085 
     77 H77        27.7354   -3.9604    0.5256 H         1 UNK         0.0836 
     78 H78        28.0761   -5.0033   -0.8249 H         1 UNK         0.0836 
     79 H79        31.7788   -4.9159   -1.1546 H         1 UNK         0.0731 
     80 H80        30.2513   -5.6835   -1.4897 H         1 UNK         0.0731 
     81 H81        32.2500   -2.6107   -2.2789 H         1 UNK         0.1312 
     82 H82        30.9027   -2.4405   -6.3453 H         1 UNK         0.1406 
     83 H83        29.3367   -5.4162   -3.7101 H         1 UNK         0.1631 
     84 H84        29.6421   -5.5109   -6.5852 H         1 UNK         0.0717 
     85 H85        29.3385   -3.9131   -7.2047 H         1 UNK         0.0717 
     86 H86        27.6020   -2.7514   -4.6412 H         1 UNK         0.0934 
     87 H87        25.9773   -3.2715   -4.8939 H         1 UNK         0.0934 
     88 H88        26.5167   -2.5842   -7.4848 H         1 UNK         0.0739 
     89 H89        24.9483   -1.5069   -5.5056 H         1 UNK         0.3093 
     90 H90        23.8330    1.5099   -6.9486 H         1 UNK         0.0818 
     91 H91        21.6367    0.3614   -6.9413 H         1 UNK         0.0819 
     92 H92        22.6322   -0.1993   -8.2750 H         1 UNK         0.0819 
     93 H93        22.4300   -1.2104   -6.8537 H         1 UNK         0.0819 
     94 H94        23.6368    1.6025   -4.7804 H         1 UNK         0.3041 
     95 H95        24.0916    1.0035   -2.5929 H         1 UNK         0.0784 
     96 H96        21.7772    1.6654   -3.0979 H         1 UNK         0.0793 
     97 H97        21.1656    0.0820   -2.6604 H         1 UNK         0.0793 
     98 H98        21.8561    1.1358   -1.4269 H         1 UNK         0.0793 
     99 H99        24.6423   -0.6893   -1.3240 H         1 UNK         0.3024 
    100 H100       23.5728   -2.3261    0.6631 H         1 UNK         0.1171 
    101 H101       23.7781   -4.8303    0.5077 H         1 UNK         0.0786 
    102 H102       23.3083   -4.7474   -1.1907 H         1 UNK         0.0786 
    103 H103       22.1863   -4.2417    0.0592 H         1 UNK         0.0786 
    104 H104       25.7460   -2.2441    0.2497 H         1 UNK         0.2977 
    105 H105       27.7321   -0.3785   -4.9175 H         1 UNK         0.3127 
    106 H106       30.3390   -0.0807   -5.9917 H         1 UNK         0.0770 
    107 H107       28.7527    1.7045   -4.0738 H         1 UNK         0.0814 
    108 H108       30.4859    1.8070   -4.3380 H         1 UNK         0.0814 
    109 H109       29.8066    0.3568   -3.6311 H         1 UNK         0.0814 
    110 H110       27.3696    1.6050   -6.8199 H         1 UNK         0.2983 
    111 H111       28.6947    3.8113   -8.2068 H         1 UNK         0.0947 
    112 H112       26.3945    4.3823   -8.9408 H         1 UNK         0.0806 
    113 H113       26.4407    4.1319   -7.2037 H         1 UNK         0.0806 
    114 H114       25.7683    2.8902   -8.2592 H         1 UNK         0.0806 
    115 H115       27.0016    0.7768   -9.1193 H         1 UNK         0.3000 
    116 H116       27.3454    1.0029  -11.9241 H         1 UNK         0.0850 
    117 H117       26.7410   -1.4320  -11.9099 H         1 UNK         0.0810 
    118 H118       25.6700   -0.4926  -10.8809 H         1 UNK         0.0810 
    119 H119       26.9419   -1.4758  -10.1618 H         1 UNK         0.0810 
    120 H120       29.3346   -0.7123   -9.4632 H         1 UNK         0.3040 
    121 H121       31.3360   -1.5611  -11.4043 H         1 UNK         0.0766 
    122 H122       32.4960   -2.3893   -9.3379 H         1 UNK         0.0812 
    123 H123       31.2842   -1.5772   -8.3546 H         1 UNK         0.0812 
    124 H124       30.8184   -2.9153   -9.3993 H         1 UNK         0.0812 
    125 H125       30.7748    1.3802   -9.7600 H         1 UNK         0.3205 
    126 H126       31.7446    3.3223   -9.6115 H         1 UNK         0.0754 
    127 H127       33.4786    4.0367  -11.1969 H         1 UNK         0.0769 
    128 H128       32.3161    3.0215  -12.0318 H         1 UNK         0.0769 
    129 H129       33.8920    2.3730  -11.5763 H         1 UNK         0.0769 
    130 H130       32.8034    0.9082   -7.9524 H         1 UNK         0.2981 
    131 H131       35.2715    2.0302   -6.8509 H         1 UNK         0.0541 
    132 H132       31.9412    2.7918   -6.3535 H         1 UNK         0.3459 
    133 H133       32.2109    3.5845   -4.8151 H         1 UNK         0.3459 
    134 H134       35.0550    0.0881   -5.1735 H         1 UNK         0.0612 
    135 H135       35.4110   -0.2747   -6.8282 H         1 UNK         0.0612 
    136 H136       33.5572   -1.3775   -3.9415 H         1 UNK         0.0624 
    137 H137       32.2144   -0.2980   -4.2474 H         1 UNK         0.0624 
@<TRIPOS>BOND
     1    1    2 1    
     2    1   72 1    
     3    1   73 1    
     4    1   74 1    
     5    2    3 2    
     6    2    4 am   BACKBONE|DICT|INTERRES
     7    4    5 1    
     8    4   75 1    
     9    5    6 1    
    10    5   35 1    
    11    5   76 1    
    12    6    7 1    
    13    6   77 1    
    14    6   78 1    
    15    7    8 1    
    16    8    9 1    
    17    8   79 1    
    18    8   80 1    
    19    9   10 ar   
    20    9   14 ar   
    21   10   11 ar   
    22   10   81 1    
    23   11   12 ar   
    24   11   71 1    
    25   12   13 ar   
    26   12   82 1    
    27   13   14 ar   
    28   13   15 1    
    29   14   83 1    
    30   15   16 1    
    31   15   84 1    
    32   15   85 1    
    33   16   17 1    
    34   17   18 1    
    35   17   86 1    
    36   17   87 1    
    37   18   19 1    
    38   18   37 1    
    39   18   88 1    
    40   19   20 am   BACKBONE|DICT|INTERRES
    41   19   89 1    
    42   20   21 2    
    43   20   22 1    
    44   22   23 1    
    45   22   24 1    
    46   22   90 1    
    47   23   91 1    
    48   23   92 1    
    49   23   93 1    
    50   24   25 am   BACKBONE|DICT|INTERRES
    51   24   94 1    
    52   25   26 2    
    53   25   27 1    
    54   27   28 1    
    55   27   29 1    
    56   27   95 1    
    57   28   96 1    
    58   28   97 1    
    59   28   98 1    
    60   29   30 am   BACKBONE|DICT|INTERRES
    61   29   99 1    
    62   30   31 2    
    63   30   32 1    
    64   32   33 1    
    65   32   34 1    
    66   32  100 1    
    67   33  101 1    
    68   33  102 1    
    69   33  103 1    
    70   34   35 am   BACKBONE|DICT|INTERRES
    71   34  104 1    
    72   35   36 2    
    73   37   38 2    
    74   37   39 am   BACKBONE|DICT|INTERRES
    75   39   40 1    
    76   39  105 1    
    77   40   41 1    
    78   40   42 1    
    79   40  106 1    
    80   41  107 1    
    81   41  108 1    
    82   41  109 1    
    83   42   43 2    
    84   42   44 am   BACKBONE|DICT|INTERRES
    85   44   45 1    
    86   44  110 1    
    87   45   46 1    
    88   45   47 1    
    89   45  111 1    
    90   46  112 1    
    91   46  113 1    
    92   46  114 1    
    93   47   48 2    
    94   47   49 am   BACKBONE|DICT|INTERRES
    95   49   50 1    
    96   49  115 1    
    97   50   51 1    
    98   50   52 1    
    99   50  116 1    
   100   51  117 1    
   101   51  118 1    
   102   51  119 1    
   103   52   53 2    
   104   52   54 am   BACKBONE|DICT|INTERRES
   105   54   55 1    
   106   54  120 1    
   107   55   56 1    
   108   55   57 1    
   109   55  121 1    
   110   56  122 1    
   111   56  123 1    
   112   56  124 1    
   113   57   58 2    
   114   57   59 am   BACKBONE|DICT|INTERRES
   115   59   60 1    
   116   59  125 1    
   117   60   61 1    
   118   60   62 1    
   119   60  126 1    
   120   61  127 1    
   121   61  128 1    
   122   61  129 1    
   123   62   63 2    
   124   62   64 am   BACKBONE|DICT|INTERRES
   125   64   65 1    
   126   64  130 1    
   127   65   66 1    
   128   65   69 1    
   129   65  131 1    
   130   66   67 am   BACKBONE|DICT|INTERRES
   131   66   68 2    
   132   67  132 1    
   133   67  133 1    
   134   69   70 1    
   135   69  134 1    
   136   69  135 1    
   137   70   71 1    
   138   71  136 1    
   139   71  137 1    
@<TRIPOS>SUBSTRUCTURE
     1 UNK         1 GROUP             0       ****    0 ROOT    
