@<TRIPOS>MOLECULE
3R137
137   139    1
SMALL
USER_CHARGES


@<TRIPOS>ATOM
      1 CA         26.4606   -0.6782    4.3989 C.3       0 UNK        -0.2020 
      2 C          26.6123   -0.5644    2.8891 C.2       0 UNK         0.4855 
      3 O          25.9420    0.2610    2.2674 O.2       0 UNK        -0.5197 
      4 N          27.4935   -1.3798    2.2961 N.am      1 UNK        -0.4892 
      5 CA         27.7146   -1.4561    0.8481 C.3       1 UNK         0.0835 
      6 C6         29.1077   -2.0574    0.5316 C.3       12 UNK        -0.0855 
      7 S7         29.7049   -1.6032   -1.1335 S.3       12 UNK        -0.2931 
      8 C8         29.7952   -3.2479   -1.9189 C.3       12 UNK         0.0378 
      9 C9         30.0834   -3.2066   -3.4181 C.ar      12 UNK        -0.0802 
     10 C10        30.9904   -2.2911   -3.9649 C.ar      12 UNK        -0.0944 
     11 C11        31.2685   -2.2904   -5.3346 C.ar      12 UNK        -0.0787 
     12 C12        30.6514   -3.2358   -6.1607 C.ar      12 UNK        -0.0862 
     13 C13        29.7510   -4.1651   -5.6295 C.ar      12 UNK        -0.0733 
     14 C14        29.4687   -4.1388   -4.2604 C.ar      12 UNK        -0.0832 
     15 C15        29.1312   -5.2422   -6.5139 C.3       12 UNK         0.0240 
     16 S16        28.1294   -4.5787   -7.8830 S.3       12 UNK        -0.2522 
     17 C17        26.7133   -3.8269   -7.0086 C.3       12 UNK        -0.0967 
     18 CA         26.2392   -2.5242   -7.7033 C.3       5 UNK         0.0660 
     19 N          24.9915   -1.9977   -7.1764 N.am      5 UNK        -0.4015 
     20 C          23.7564   -2.4570   -7.3727 C.2       4 UNK         0.4946 
     21 O          23.5050   -3.4842   -8.0054 O.2       4 UNK        -0.5353 
     22 CA         22.6075   -1.6151   -6.7652 C.3       4 UNK         0.0277 
     23 CB         21.3288   -2.4460   -6.5489 C.3       4 UNK        -0.1981 
     24 N          22.9551   -0.9453   -5.5027 N.am      4 UNK        -0.4209 
     25 C          23.7792    0.1032   -5.3562 C.2       3 UNK         0.4942 
     26 O          24.3681    0.6481   -6.2902 O.2       3 UNK        -0.5208 
     27 CA         24.0931    0.5400   -3.9175 C.3       3 UNK         0.0250 
     28 CB         22.9805    1.4475   -3.3700 C.3       3 UNK        -0.1990 
     29 N          24.3224   -0.5811   -2.9969 N.am      3 UNK        -0.4232 
     30 C          25.2336   -1.5501   -3.1709 C.2       2 UNK         0.4993 
     31 O          25.9778   -1.6320   -4.1499 O.2       2 UNK        -0.5286 
     32 CA         25.3956   -2.5474   -2.0243 C.3       2 UNK         0.0209 
     33 CB         25.7880   -3.9519   -2.5223 C.3       2 UNK        -0.1931 
     34 N          26.4375   -2.0038   -1.1633 N.am      2 UNK        -0.4546 
     35 C          26.5679   -2.2218    0.1477 C.2       1 UNK         0.5154 
     36 O          25.8423   -2.9887    0.7879 O.2       1 UNK        -0.5181 
     37 C          27.2614   -1.3860   -7.6083 C.2       5 UNK         0.5014 
     38 O          27.7725   -0.9470   -8.6389 O.2       5 UNK        -0.5248 
     39 N          27.4968   -0.8885   -6.3843 N.am      6 UNK        -0.4434 
     40 CA         28.4973    0.1306   -6.0622 C.3       6 UNK         0.0363 
     41 CB         28.4925    0.3990   -4.5497 C.3       6 UNK        -0.1936 
     42 C          28.3441    1.4431   -6.8434 C.2       6 UNK         0.5081 
     43 O          29.3561    2.0115   -7.2505 O.2       6 UNK        -0.5248 
     44 N          27.0986    1.8786   -7.0850 N.am      7 UNK        -0.4718 
     45 CA         26.7919    3.0886   -7.8554 C.3       7 UNK         0.0273 
     46 CB         25.3023    3.4308   -7.6935 C.3       7 UNK        -0.1935 
     47 C          27.1605    2.9901   -9.3481 C.2       7 UNK         0.5018 
     48 O          27.3724    4.0276   -9.9773 O.2       7 UNK        -0.5186 
     49 N          27.2257    1.7645   -9.8858 N.am      8 UNK        -0.4240 
     50 CA         27.6114    1.4848  -11.2683 C.3       8 UNK         0.0235 
     51 CB         26.7122    0.3713  -11.8326 C.3       8 UNK        -0.2000 
     52 C          29.0904    1.0846  -11.3607 C.2       8 UNK         0.4941 
     53 O          29.7993    1.5863  -12.2337 O.2       8 UNK        -0.5273 
     54 N          29.5236    0.1770  -10.4757 N.am      9 UNK        -0.4262 
     55 CA         30.8621   -0.4121  -10.4700 C.3       9 UNK         0.0264 
     56 CB         30.8337   -1.7031   -9.6388 C.3       9 UNK        -0.1955 
     57 C          31.9594    0.5306   -9.9541 C.2       9 UNK         0.5031 
     58 O          33.1019    0.4018  -10.3976 O.2       9 UNK        -0.5390 
     59 N          31.6183    1.4301   -9.0177 N.am      10 UNK        -0.4204 
     60 CA         32.4699    2.4204   -8.3393 C.3       10 UNK         0.0237 
     61 CB         33.0636    3.4335   -9.3377 C.3       10 UNK        -0.1985 
     62 C          33.5647    1.8324   -7.4273 C.2       10 UNK         0.4970 
     63 O          33.7367    2.3283   -6.3137 O.2       10 UNK        -0.4914 
     64 N          34.2821    0.8087   -7.9075 N.am      11 UNK        -0.4285 
     65 CA         35.4151    0.1321   -7.2500 C.3       11 UNK         0.1007 
     66 C          36.6726    1.0343   -7.0429 C.2       11 UNK         0.5703 
     67 N          36.8124    2.1463   -7.7559 N.am      11 UNK        -0.7361 
     68 O          37.5564    0.7102   -6.2526 O.2       11 UNK        -0.4986 
     69 C69        35.0005   -0.6386   -5.9621 C.3       12 UNK        -0.0947 
     70 S70        33.8475   -2.0157   -6.2879 S.3       12 UNK        -0.2240 
     71 C71        32.2355   -1.2652   -5.9101 C.3       12 UNK         0.0194 
     72 H72        26.6899    0.2761    4.8723 H         1 UNK         0.0906 
     73 H73        25.4357   -0.9474    4.6531 H         1 UNK         0.0906 
     74 H74        27.1237   -1.4334    4.8205 H         1 UNK         0.0906 
     75 H75        27.9866   -2.0640    2.8525 H         1 UNK         0.3140 
     76 H76        27.6969   -0.4304    0.4706 H         1 UNK         0.1085 
     77 H77        29.8458   -1.6706    1.2365 H         1 UNK         0.0836 
     78 H78        29.1121   -3.1409    0.6673 H         1 UNK         0.0836 
     79 H79        28.8543   -3.7690   -1.7356 H         1 UNK         0.0731 
     80 H80        30.5758   -3.8321   -1.4297 H         1 UNK         0.0731 
     81 H81        31.4839   -1.5751   -3.3226 H         1 UNK         0.1312 
     82 H82        30.8846   -3.2646   -7.2150 H         1 UNK         0.1406 
     83 H83        28.7889   -4.8691   -3.8435 H         1 UNK         0.1631 
     84 H84        28.5131   -5.9238   -5.9274 H         1 UNK         0.0717 
     85 H85        29.9341   -5.8482   -6.9356 H         1 UNK         0.0717 
     86 H86        25.9064   -4.5609   -7.0000 H         1 UNK         0.0934 
     87 H87        26.9619   -3.6444   -5.9614 H         1 UNK         0.0934 
     88 H88        26.0798   -2.7337   -8.7634 H         1 UNK         0.0739 
     89 H89        25.0674   -1.1065   -6.6955 H         1 UNK         0.3093 
     90 H90        22.3778   -0.8387   -7.4981 H         1 UNK         0.0818 
     91 H91        20.5150   -1.8314   -6.1636 H         1 UNK         0.0819 
     92 H92        20.9804   -2.8845   -7.4851 H         1 UNK         0.0819 
     93 H93        21.4951   -3.2643   -5.8473 H         1 UNK         0.0819 
     94 H94        22.5704   -1.3548   -4.6638 H         1 UNK         0.3041 
     95 H95        25.0164    1.1219   -3.9520 H         1 UNK         0.0784 
     96 H96        22.8059    2.2948   -4.0350 H         1 UNK         0.0793 
     97 H97        22.0347    0.9142   -3.2662 H         1 UNK         0.0793 
     98 H98        23.2452    1.8552   -2.3941 H         1 UNK         0.0793 
     99 H99        23.7816   -0.5755   -2.1436 H         1 UNK         0.3024 
    100 H100       24.4541   -2.6173   -1.4745 H         1 UNK         0.1171 
    101 H101       25.0245   -4.3547   -3.1888 H         1 UNK         0.0786 
    102 H102       26.7262   -3.9358   -3.0759 H         1 UNK         0.0786 
    103 H103       25.8999   -4.6513   -1.6938 H         1 UNK         0.0786 
    104 H104       27.0939   -1.3844   -1.6222 H         1 UNK         0.2977 
    105 H105       26.9974   -1.2831   -5.5859 H         1 UNK         0.3127 
    106 H106       29.4677   -0.2886   -6.3289 H         1 UNK         0.0770 
    107 H107       27.5423    0.8182   -4.2179 H         1 UNK         0.0814 
    108 H108       29.2782    1.1036   -4.2746 H         1 UNK         0.0814 
    109 H109       28.6668   -0.5169   -3.9851 H         1 UNK         0.0814 
    110 H110       26.3074    1.3494   -6.7338 H         1 UNK         0.2983 
    111 H111       27.3773    3.9084   -7.4329 H         1 UNK         0.0947 
    112 H112       25.0588    4.3655   -8.2004 H         1 UNK         0.0806 
    113 H113       25.0327    3.5512   -6.6440 H         1 UNK         0.0806 
    114 H114       24.6631    2.6549   -8.1166 H         1 UNK         0.0806 
    115 H115       27.0904    0.9641   -9.2797 H         1 UNK         0.3000 
    116 H116       27.4668    2.3742  -11.8857 H         1 UNK         0.0850 
    117 H117       26.9802    0.1393  -12.8643 H         1 UNK         0.0810 
    118 H118       25.6644    0.6718  -11.8303 H         1 UNK         0.0810 
    119 H119       26.7954   -0.5523  -11.2581 H         1 UNK         0.0810 
    120 H120       28.8609   -0.2067   -9.8012 H         1 UNK         0.3040 
    121 H121       31.1208   -0.6779  -11.4973 H         1 UNK         0.0766 
    122 H122       31.8258   -2.1509   -9.5621 H         1 UNK         0.0812 
    123 H123       30.1731   -2.4471  -10.0846 H         1 UNK         0.0812 
    124 H124       30.4767   -1.5102   -8.6281 H         1 UNK         0.0812 
    125 H125       30.6576    1.4312   -8.6867 H         1 UNK         0.3205 
    126 H126       31.7976    2.9767   -7.6846 H         1 UNK         0.0754 
    127 H127       33.6094    4.2203   -8.8151 H         1 UNK         0.0769 
    128 H128       32.2797    3.9165   -9.9214 H         1 UNK         0.0769 
    129 H129       33.7587    2.9655  -10.0352 H         1 UNK         0.0769 
    130 H130       34.0622    0.4991   -8.8520 H         1 UNK         0.2981 
    131 H131       35.7507   -0.6148   -7.9701 H         1 UNK         0.0541 
    132 H132       37.6332    2.7161   -7.6245 H         1 UNK         0.3459 
    133 H133       36.1088    2.4179   -8.4229 H         1 UNK         0.3459 
    134 H134       34.5889    0.0372   -5.2120 H         1 UNK         0.0612 
    135 H135       35.8753   -1.0933   -5.4947 H         1 UNK         0.0612 
    136 H136       31.8255   -0.8291   -6.8206 H         1 UNK         0.0624 
    137 H137       32.3592   -0.4384   -5.2096 H         1 UNK         0.0624 
@<TRIPOS>BOND
     1    1    2 1    
     2    1   72 1    
     3    1   73 1    
     4    1   74 1    
     5    2    3 2    
     6    2    4 am   BACKBONE|DICT|INTERRES
     7    4    5 1    
     8    4   75 1    
     9    5    6 1    
    10    5   35 1    
    11    5   76 1    
    12    6    7 1    
    13    6   77 1    
    14    6   78 1    
    15    7    8 1    
    16    8    9 1    
    17    8   79 1    
    18    8   80 1    
    19    9   10 ar   
    20    9   14 ar   
    21   10   11 ar   
    22   10   81 1    
    23   11   12 ar   
    24   11   71 1    
    25   12   13 ar   
    26   12   82 1    
    27   13   14 ar   
    28   13   15 1    
    29   14   83 1    
    30   15   16 1    
    31   15   84 1    
    32   15   85 1    
    33   16   17 1    
    34   17   18 1    
    35   17   86 1    
    36   17   87 1    
    37   18   19 1    
    38   18   37 1    
    39   18   88 1    
    40   19   20 am   BACKBONE|DICT|INTERRES
    41   19   89 1    
    42   20   21 2    
    43   20   22 1    
    44   22   23 1    
    45   22   24 1    
    46   22   90 1    
    47   23   91 1    
    48   23   92 1    
    49   23   93 1    
    50   24   25 am   BACKBONE|DICT|INTERRES
    51   24   94 1    
    52   25   26 2    
    53   25   27 1    
    54   27   28 1    
    55   27   29 1    
    56   27   95 1    
    57   28   96 1    
    58   28   97 1    
    59   28   98 1    
    60   29   30 am   BACKBONE|DICT|INTERRES
    61   29   99 1    
    62   30   31 2    
    63   30   32 1    
    64   32   33 1    
    65   32   34 1    
    66   32  100 1    
    67   33  101 1    
    68   33  102 1    
    69   33  103 1    
    70   34   35 am   BACKBONE|DICT|INTERRES
    71   34  104 1    
    72   35   36 2    
    73   37   38 2    
    74   37   39 am   BACKBONE|DICT|INTERRES
    75   39   40 1    
    76   39  105 1    
    77   40   41 1    
    78   40   42 1    
    79   40  106 1    
    80   41  107 1    
    81   41  108 1    
    82   41  109 1    
    83   42   43 2    
    84   42   44 am   BACKBONE|DICT|INTERRES
    85   44   45 1    
    86   44  110 1    
    87   45   46 1    
    88   45   47 1    
    89   45  111 1    
    90   46  112 1    
    91   46  113 1    
    92   46  114 1    
    93   47   48 2    
    94   47   49 am   BACKBONE|DICT|INTERRES
    95   49   50 1    
    96   49  115 1    
    97   50   51 1    
    98   50   52 1    
    99   50  116 1    
   100   51  117 1    
   101   51  118 1    
   102   51  119 1    
   103   52   53 2    
   104   52   54 am   BACKBONE|DICT|INTERRES
   105   54   55 1    
   106   54  120 1    
   107   55   56 1    
   108   55   57 1    
   109   55  121 1    
   110   56  122 1    
   111   56  123 1    
   112   56  124 1    
   113   57   58 2    
   114   57   59 am   BACKBONE|DICT|INTERRES
   115   59   60 1    
   116   59  125 1    
   117   60   61 1    
   118   60   62 1    
   119   60  126 1    
   120   61  127 1    
   121   61  128 1    
   122   61  129 1    
   123   62   63 2    
   124   62   64 am   BACKBONE|DICT|INTERRES
   125   64   65 1    
   126   64  130 1    
   127   65   66 1    
   128   65   69 1    
   129   65  131 1    
   130   66   67 am   BACKBONE|DICT|INTERRES
   131   66   68 2    
   132   67  132 1    
   133   67  133 1    
   134   69   70 1    
   135   69  134 1    
   136   69  135 1    
   137   70   71 1    
   138   71  136 1    
   139   71  137 1    
@<TRIPOS>SUBSTRUCTURE
     1 UNK         1 GROUP             0       ****    0 ROOT    
