@<TRIPOS>MOLECULE
3R137
137   139    1
SMALL
USER_CHARGES


@<TRIPOS>ATOM
      1 CA         22.6522   -4.9775   -3.2509 C.3       0 UNK        -0.2020 
      2 C          23.5411   -4.3523   -2.1873 C.2       0 UNK         0.4855 
      3 O          23.0920   -3.4686   -1.4563 O.2       0 UNK        -0.5197 
      4 N          24.8040   -4.7913   -2.1049 N.am      1 UNK        -0.4892 
      5 CA         25.8390   -4.2705   -1.2044 C.3       1 UNK         0.0835 
      6 C6         27.1502   -5.1016   -1.2783 C.3       12 UNK        -0.0855 
      7 S7         27.7387   -5.4764   -2.9742 S.3       12 UNK        -0.2931 
      8 C8         29.5297   -5.6833   -2.7190 C.3       12 UNK         0.0378 
      9 C9         30.3350   -4.4744   -3.1825 C.ar      12 UNK        -0.0802 
     10 C10        31.1480   -4.5663   -4.3191 C.ar      12 UNK        -0.0944 
     11 C11        31.9635   -3.4962   -4.7055 C.ar      12 UNK        -0.0787 
     12 C12        31.9464   -2.3224   -3.9466 C.ar      12 UNK        -0.0862 
     13 C13        31.1176   -2.2033   -2.8289 C.ar      12 UNK        -0.0733 
     14 C14        30.3156   -3.2840   -2.4482 C.ar      12 UNK        -0.0832 
     15 C15        31.1225   -0.9132   -2.0201 C.3       12 UNK         0.0240 
     16 S16        30.4946    0.5043   -2.9790 S.3       12 UNK        -0.2522 
     17 C17        28.7341    0.0714   -3.1621 C.3       12 UNK        -0.0967 
     18 CA         28.2700   -0.0101   -4.6402 C.3       5 UNK         0.0660 
     19 N          27.1060   -0.8969   -4.7757 N.am      5 UNK        -0.4015 
     20 C          26.4032   -1.1481   -5.8904 C.2       4 UNK         0.4946 
     21 O          26.6547   -0.6592   -6.9881 O.2       4 UNK        -0.5353 
     22 CA         25.1616   -2.0382   -5.7465 C.3       4 UNK         0.0277 
     23 CB         25.5427   -3.5228   -5.6406 C.3       4 UNK        -0.1981 
     24 N          24.3656   -1.6295   -4.5899 N.am      4 UNK        -0.4209 
     25 C          23.5645   -0.5535   -4.5768 C.2       3 UNK         0.4942 
     26 O          23.3232    0.1328   -5.5698 O.2       3 UNK        -0.5208 
     27 CA         22.9475   -0.1543   -3.2255 C.3       3 UNK         0.0250 
     28 CB         21.5571   -0.7862   -3.0540 C.3       3 UNK        -0.1990 
     29 N          23.7983   -0.5069   -2.0851 N.am      3 UNK        -0.4232 
     30 C          24.9563    0.1086   -1.7994 C.2       2 UNK         0.4993 
     31 O          25.4100    1.0470   -2.4556 O.2       2 UNK        -0.5286 
     32 CA         25.7762   -0.4504   -0.6203 C.3       2 UNK         0.0209 
     33 CB         25.3301    0.1977    0.6996 C.3       2 UNK        -0.1931 
     34 N          25.7156   -1.9123   -0.4955 N.am      2 UNK        -0.4546 
     35 C          26.0800   -2.7699   -1.4591 C.2       1 UNK         0.5154 
     36 O          26.5270   -2.4070   -2.5460 O.2       1 UNK        -0.5181 
     37 C          28.0213    1.4022   -5.2141 C.2       5 UNK         0.5014 
     38 O          28.8892    1.9482   -5.8959 O.2       5 UNK        -0.5248 
     39 N          26.8263    1.9519   -4.9504 N.am      6 UNK        -0.4434 
     40 CA         26.3622    3.2424   -5.4634 C.3       6 UNK         0.0363 
     41 CB         25.0309    3.5980   -4.7821 C.3       6 UNK        -0.1936 
     42 C          26.2086    3.3029   -6.9966 C.2       6 UNK         0.5081 
     43 O          26.3199    4.3924   -7.5599 O.2       6 UNK        -0.5248 
     44 N          25.9441    2.1592   -7.6421 N.am      7 UNK        -0.4718 
     45 CA         25.7762    2.0449   -9.0926 C.3       7 UNK         0.0273 
     46 CB         24.6210    1.0746   -9.3895 C.3       7 UNK        -0.1935 
     47 C          27.0649    1.5696   -9.7802 C.2       7 UNK         0.5018 
     48 O          27.4029    2.0733  -10.8531 O.2       7 UNK        -0.5186 
     49 N          27.7571    0.6026   -9.1650 N.am      8 UNK        -0.4240 
     50 CA         28.9719   -0.0398   -9.6622 C.3       8 UNK         0.0235 
     51 CB         29.1543   -1.3881   -8.9395 C.3       8 UNK        -0.2000 
     52 C          30.2067    0.8654   -9.5208 C.2       8 UNK         0.4941 
     53 O          31.0981    0.5776   -8.7216 O.2       8 UNK        -0.5273 
     54 N          30.2670    1.9244  -10.3405 N.am      9 UNK        -0.4262 
     55 CA         31.3895    2.8691  -10.4351 C.3       9 UNK         0.0264 
     56 CB         31.0548    3.9524  -11.4729 C.3       9 UNK        -0.1955 
     57 C          32.7460    2.2096  -10.7587 C.2       9 UNK         0.5031 
     58 O          33.7864    2.7428  -10.3704 O.2       9 UNK        -0.5390 
     59 N          32.7084    1.0369  -11.4095 N.am      10 UNK        -0.4204 
     60 CA         33.8490    0.1528  -11.6624 C.3       10 UNK         0.0237 
     61 CB         33.3804   -1.0367  -12.5168 C.3       10 UNK        -0.1985 
     62 C          34.5616   -0.3494  -10.3895 C.2       10 UNK         0.4970 
     63 O          35.7380   -0.7042  -10.4778 O.2       10 UNK        -0.4914 
     64 N          33.8705   -0.3560   -9.2388 N.am      11 UNK        -0.4285 
     65 CA         34.4720   -0.6161   -7.9212 C.3       11 UNK         0.1007 
     66 C          35.3760    0.5419   -7.3979 C.2       11 UNK         0.5703 
     67 N          35.3732    1.7294   -7.9958 N.am      11 UNK        -0.7361 
     68 O          36.1085    0.3527   -6.4293 O.2       11 UNK        -0.4986 
     69 C69        33.4107   -1.0033   -6.8572 C.3       12 UNK        -0.0947 
     70 S70        32.4699   -2.5127   -7.2791 S.3       12 UNK        -0.2240 
     71 C71        32.8981   -3.6344   -5.9054 C.3       12 UNK         0.0194 
     72 H72        21.7536   -5.3902   -2.7931 H         1 UNK         0.0906 
     73 H73        22.3497   -4.2238   -3.9774 H         1 UNK         0.0906 
     74 H74        23.1593   -5.7803   -3.7857 H         1 UNK         0.0906 
     75 H75        25.1337   -5.4921   -2.7545 H         1 UNK         0.3140 
     76 H76        25.4514   -4.3726   -0.1883 H         1 UNK         0.1085 
     77 H77        26.9898   -6.0586   -0.7793 H         1 UNK         0.0836 
     78 H78        27.9422   -4.6114   -0.7096 H         1 UNK         0.0836 
     79 H79        29.8464   -6.5754   -3.2615 H         1 UNK         0.0731 
     80 H80        29.7434   -5.8867   -1.6688 H         1 UNK         0.0731 
     81 H81        31.1689   -5.4860   -4.8878 H         1 UNK         0.1312 
     82 H82        32.5744   -1.4881   -4.2179 H         1 UNK         0.1406 
     83 H83        29.6860   -3.2055   -1.5731 H         1 UNK         0.1631 
     84 H84        32.1439   -0.6973   -1.7039 H         1 UNK         0.0717 
     85 H85        30.5357   -1.0184   -1.1061 H         1 UNK         0.0717 
     86 H86        28.5777   -0.8885   -2.6715 H         1 UNK         0.0934 
     87 H87        28.1375    0.7870   -2.5939 H         1 UNK         0.0934 
     88 H88        29.0639   -0.4710   -5.2323 H         1 UNK         0.0739 
     89 H89        26.8391   -1.4012   -3.9298 H         1 UNK         0.3093 
     90 H90        24.5563   -1.9149   -6.6476 H         1 UNK         0.0818 
     91 H91        26.1115   -3.8395   -6.5158 H         1 UNK         0.0819 
     92 H92        26.1592   -3.7258   -4.7662 H         1 UNK         0.0819 
     93 H93        24.6583   -4.1568   -5.5826 H         1 UNK         0.0819 
     94 H94        24.5620   -2.0965   -3.7154 H         1 UNK         0.3041 
     95 H95        22.8259    0.9314   -3.2306 H         1 UNK         0.0784 
     96 H96        20.8919   -0.4869   -3.8652 H         1 UNK         0.0793 
     97 H97        21.6015   -1.8753   -3.0565 H         1 UNK         0.0793 
     98 H98        21.0903   -0.4716   -2.1205 H         1 UNK         0.0793 
     99 H99        23.5176   -1.3104   -1.5333 H         1 UNK         0.3024 
    100 H100       26.8193   -0.1802   -0.7943 H         1 UNK         0.1171 
    101 H101       25.9682   -0.1091    1.5287 H         1 UNK         0.0786 
    102 H102       25.3845    1.2857    0.6376 H         1 UNK         0.0786 
    103 H103       24.3014   -0.0634    0.9517 H         1 UNK         0.0786 
    104 H104       25.3169   -2.2767    0.3583 H         1 UNK         0.2977 
    105 H105       26.2019    1.4662   -4.3134 H         1 UNK         0.3127 
    106 H106       27.1029    3.9935   -5.1815 H         1 UNK         0.0770 
    107 H107       24.2575    2.8609   -5.0030 H         1 UNK         0.0814 
    108 H108       24.6644    4.5683   -5.1200 H         1 UNK         0.0814 
    109 H109       25.1409    3.6527   -3.6988 H         1 UNK         0.0814 
    110 H110       25.9239    1.2932   -7.1152 H         1 UNK         0.2983 
    111 H111       25.5138    3.0164   -9.5176 H         1 UNK         0.0947 
    112 H112       24.4630    0.9720  -10.4640 H         1 UNK         0.0806 
    113 H113       23.6858    1.4301   -8.9563 H         1 UNK         0.0806 
    114 H114       24.8141    0.0779   -8.9902 H         1 UNK         0.0806 
    115 H115       27.3869    0.2274   -8.2912 H         1 UNK         0.3000 
    116 H116       28.8388   -0.2510  -10.7254 H         1 UNK         0.0850 
    117 H117       30.0314   -1.9177   -9.3138 H         1 UNK         0.0810 
    118 H118       28.2928   -2.0392   -9.0878 H         1 UNK         0.0810 
    119 H119       29.2897   -1.2541   -7.8651 H         1 UNK         0.0810 
    120 H120       29.4486    2.1167  -10.9102 H         1 UNK         0.3040 
    121 H121       31.4907    3.3477   -9.4586 H         1 UNK         0.0766 
    122 H122       30.1477    4.4940  -11.2032 H         1 UNK         0.0812 
    123 H123       30.9103    3.5281  -12.4675 H         1 UNK         0.0812 
    124 H124       31.8590    4.6863  -11.5448 H         1 UNK         0.0812 
    125 H125       31.8024    0.6914  -11.6888 H         1 UNK         0.3205 
    126 H126       34.5815    0.7229  -12.2376 H         1 UNK         0.0754 
    127 H127       32.9562   -0.7039  -13.4646 H         1 UNK         0.0769 
    128 H128       32.6268   -1.6325  -11.9997 H         1 UNK         0.0769 
    129 H129       34.2137   -1.7003  -12.7535 H         1 UNK         0.0769 
    130 H130       32.9026   -0.0481   -9.2219 H         1 UNK         0.2981 
    131 H131       35.1358   -1.4756   -8.0341 H         1 UNK         0.0541 
    132 H132       34.7848    1.9156   -8.8005 H         1 UNK         0.3459 
    133 H133       35.9719    2.4566   -7.6387 H         1 UNK         0.3459 
    134 H134       33.9057   -1.1549   -5.8982 H         1 UNK         0.0612 
    135 H135       32.7015   -0.1878   -6.7056 H         1 UNK         0.0612 
    136 H136       32.8651   -4.6553   -6.2888 H         1 UNK         0.0624 
    137 H137       33.9295   -3.4685   -5.5916 H         1 UNK         0.0624 
@<TRIPOS>BOND
     1    1    2 1    
     2    1   72 1    
     3    1   73 1    
     4    1   74 1    
     5    2    3 2    
     6    2    4 am   BACKBONE|DICT|INTERRES
     7    4    5 1    
     8    4   75 1    
     9    5    6 1    
    10    5   35 1    
    11    5   76 1    
    12    6    7 1    
    13    6   77 1    
    14    6   78 1    
    15    7    8 1    
    16    8    9 1    
    17    8   79 1    
    18    8   80 1    
    19    9   10 ar   
    20    9   14 ar   
    21   10   11 ar   
    22   10   81 1    
    23   11   12 ar   
    24   11   71 1    
    25   12   13 ar   
    26   12   82 1    
    27   13   14 ar   
    28   13   15 1    
    29   14   83 1    
    30   15   16 1    
    31   15   84 1    
    32   15   85 1    
    33   16   17 1    
    34   17   18 1    
    35   17   86 1    
    36   17   87 1    
    37   18   19 1    
    38   18   37 1    
    39   18   88 1    
    40   19   20 am   BACKBONE|DICT|INTERRES
    41   19   89 1    
    42   20   21 2    
    43   20   22 1    
    44   22   23 1    
    45   22   24 1    
    46   22   90 1    
    47   23   91 1    
    48   23   92 1    
    49   23   93 1    
    50   24   25 am   BACKBONE|DICT|INTERRES
    51   24   94 1    
    52   25   26 2    
    53   25   27 1    
    54   27   28 1    
    55   27   29 1    
    56   27   95 1    
    57   28   96 1    
    58   28   97 1    
    59   28   98 1    
    60   29   30 am   BACKBONE|DICT|INTERRES
    61   29   99 1    
    62   30   31 2    
    63   30   32 1    
    64   32   33 1    
    65   32   34 1    
    66   32  100 1    
    67   33  101 1    
    68   33  102 1    
    69   33  103 1    
    70   34   35 am   BACKBONE|DICT|INTERRES
    71   34  104 1    
    72   35   36 2    
    73   37   38 2    
    74   37   39 am   BACKBONE|DICT|INTERRES
    75   39   40 1    
    76   39  105 1    
    77   40   41 1    
    78   40   42 1    
    79   40  106 1    
    80   41  107 1    
    81   41  108 1    
    82   41  109 1    
    83   42   43 2    
    84   42   44 am   BACKBONE|DICT|INTERRES
    85   44   45 1    
    86   44  110 1    
    87   45   46 1    
    88   45   47 1    
    89   45  111 1    
    90   46  112 1    
    91   46  113 1    
    92   46  114 1    
    93   47   48 2    
    94   47   49 am   BACKBONE|DICT|INTERRES
    95   49   50 1    
    96   49  115 1    
    97   50   51 1    
    98   50   52 1    
    99   50  116 1    
   100   51  117 1    
   101   51  118 1    
   102   51  119 1    
   103   52   53 2    
   104   52   54 am   BACKBONE|DICT|INTERRES
   105   54   55 1    
   106   54  120 1    
   107   55   56 1    
   108   55   57 1    
   109   55  121 1    
   110   56  122 1    
   111   56  123 1    
   112   56  124 1    
   113   57   58 2    
   114   57   59 am   BACKBONE|DICT|INTERRES
   115   59   60 1    
   116   59  125 1    
   117   60   61 1    
   118   60   62 1    
   119   60  126 1    
   120   61  127 1    
   121   61  128 1    
   122   61  129 1    
   123   62   63 2    
   124   62   64 am   BACKBONE|DICT|INTERRES
   125   64   65 1    
   126   64  130 1    
   127   65   66 1    
   128   65   69 1    
   129   65  131 1    
   130   66   67 am   BACKBONE|DICT|INTERRES
   131   66   68 2    
   132   67  132 1    
   133   67  133 1    
   134   69   70 1    
   135   69  134 1    
   136   69  135 1    
   137   70   71 1    
   138   71  136 1    
   139   71  137 1    
@<TRIPOS>SUBSTRUCTURE
     1 UNK         1 GROUP             0       ****    0 ROOT    
