@<TRIPOS>MOLECULE
3R137
137   139    1
SMALL
USER_CHARGES


@<TRIPOS>ATOM
      1 CA         25.4095   -6.8563   -3.6512 C.3       0 UNK        -0.2020 
      2 C          26.2520   -5.6219   -3.3704 C.2       0 UNK         0.4855 
      3 O          26.4612   -4.8121   -4.2723 O.2       0 UNK        -0.5197 
      4 N          26.7200   -5.4661   -2.1236 N.am      1 UNK        -0.4892 
      5 CA         27.5678   -4.3667   -1.6386 C.3       1 UNK         0.0835 
      6 C6         29.0194   -4.4550   -2.1843 C.3       12 UNK        -0.0855 
      7 S7         30.2347   -3.8173   -0.9855 S.3       12 UNK        -0.2931 
      8 C8         31.5462   -3.1879   -2.0847 C.3       12 UNK         0.0378 
      9 C9         31.2748   -1.7888   -2.6305 C.ar      12 UNK        -0.0802 
     10 C10        31.4431   -1.5242   -3.9928 C.ar      12 UNK        -0.0944 
     11 C11        31.3096   -0.2237   -4.4915 C.ar      12 UNK        -0.0787 
     12 C12        30.9924    0.8150   -3.6117 C.ar      12 UNK        -0.0862 
     13 C13        30.7454    0.5554   -2.2599 C.ar      12 UNK        -0.0733 
     14 C14        30.9137   -0.7445   -1.7729 C.ar      12 UNK        -0.0832 
     15 C15        30.2874    1.6647   -1.3160 C.3       12 UNK         0.0240 
     16 S16        28.8708    2.6413   -1.9415 S.3       12 UNK        -0.2522 
     17 C17        27.6971    1.3663   -2.5246 C.3       12 UNK        -0.0967 
     18 CA         27.6453    1.3187   -4.0757 C.3       5 UNK         0.0660 
     19 N          27.4909   -0.0425   -4.5981 N.am      5 UNK        -0.4015 
     20 C          27.7284   -0.3836   -5.8738 C.2       4 UNK         0.4946 
     21 O          28.1467    0.4017   -6.7231 O.2       4 UNK        -0.5353 
     22 CA         27.4097   -1.8262   -6.2956 C.3       4 UNK         0.0277 
     23 CB         28.5834   -2.7605   -5.9726 C.3       4 UNK        -0.1981 
     24 N          26.1806   -2.3255   -5.6774 N.am      4 UNK        -0.4209 
     25 C          24.9620   -1.8251   -5.9290 C.2       3 UNK         0.4942 
     26 O          24.7446   -0.9368   -6.7532 O.2       3 UNK        -0.5208 
     27 CA         23.7993   -2.3623   -5.0804 C.3       3 UNK         0.0250 
     28 CB         23.3218   -3.7299   -5.5946 C.3       3 UNK        -0.1990 
     29 N          24.1457   -2.4487   -3.6595 N.am      3 UNK        -0.4232 
     30 C          24.3987   -1.3875   -2.8789 C.2       2 UNK         0.4993 
     31 O          24.3340   -0.2226   -3.2664 O.2       2 UNK        -0.5286 
     32 CA         24.8352   -1.6659   -1.4321 C.3       2 UNK         0.0209 
     33 CB         23.6106   -1.7920   -0.5121 C.3       2 UNK        -0.1931 
     34 N          25.6745   -2.8596   -1.3018 N.am      2 UNK        -0.4546 
     35 C          26.8928   -2.9916   -1.8467 C.2       1 UNK         0.5154 
     36 O          27.4274   -2.1127   -2.5264 O.2       1 UNK        -0.5181 
     37 C          26.6204    2.3079   -4.6697 C.2       5 UNK         0.5014 
     38 O          26.9865    3.4479   -4.9577 O.2       5 UNK        -0.5248 
     39 N          25.3741    1.8585   -4.8811 N.am      6 UNK        -0.4434 
     40 CA         24.3277    2.6154   -5.5738 C.3       6 UNK         0.0363 
     41 CB         22.9718    1.9120   -5.4039 C.3       6 UNK        -0.1936 
     42 C          24.6441    2.8409   -7.0629 C.2       6 UNK         0.5081 
     43 O          24.3898    3.9336   -7.5709 O.2       6 UNK        -0.5248 
     44 N          25.2047    1.8212   -7.7308 N.am      7 UNK        -0.4718 
     45 CA         25.7046    1.9103   -9.1070 C.3       7 UNK         0.0273 
     46 CB         26.0034    0.5005   -9.6422 C.3       7 UNK        -0.1935 
     47 C          26.9464    2.8125   -9.2264 C.2       7 UNK         0.5018 
     48 O          27.0501    3.5677  -10.1937 O.2       7 UNK        -0.5186 
     49 N          27.8426    2.7201   -8.2323 N.am      8 UNK        -0.4240 
     50 CA         29.0868    3.4758   -8.0593 C.3       8 UNK         0.0235 
     51 CB         28.7890    4.9696   -7.8084 C.3       8 UNK        -0.2000 
     52 C          30.0892    3.2410   -9.2042 C.2       8 UNK         0.4941 
     53 O          30.7029    4.1930   -9.6917 O.2       8 UNK        -0.5273 
     54 N          30.2353    1.9771   -9.6187 N.am      9 UNK        -0.4262 
     55 CA         31.1176    1.5506  -10.6998 C.3       9 UNK         0.0264 
     56 CB         30.3743    1.6554  -12.0440 C.3       9 UNK        -0.1955 
     57 C          31.5798    0.1142  -10.4424 C.2       9 UNK         0.5031 
     58 O          30.8688   -0.6450   -9.7768 O.2       9 UNK        -0.5390 
     59 N          32.7498   -0.2271  -11.0018 N.am      10 UNK        -0.4204 
     60 CA         33.4508   -1.5193  -10.9716 C.3       10 UNK         0.0237 
     61 CB         32.6257   -2.6276  -11.6576 C.3       10 UNK        -0.1985 
     62 C          33.9225   -1.9512   -9.5721 C.2       10 UNK         0.4970 
     63 O          35.1227   -2.1415   -9.3742 O.2       10 UNK        -0.4914 
     64 N          32.9722   -2.0993   -8.6435 N.am      11 UNK        -0.4285 
     65 CA         33.1567   -2.4899   -7.2366 C.3       11 UNK         0.1007 
     66 C          33.7345   -3.9209   -7.0108 C.2       11 UNK         0.5703 
     67 N          33.6953   -4.8117   -7.9947 N.am      11 UNK        -0.7361 
     68 O          34.1890   -4.2465   -5.9166 O.2       11 UNK        -0.4986 
     69 C69        33.8895   -1.4017   -6.3935 C.3       12 UNK        -0.0947 
     70 S70        33.1815    0.2813   -6.5114 S.3       12 UNK        -0.2240 
     71 C71        31.4521    0.0615   -5.9823 C.3       12 UNK         0.0194 
     72 H72        25.8410   -7.4224   -4.4762 H         1 UNK         0.0906 
     73 H73        25.3469   -7.5149   -2.7852 H         1 UNK         0.0906 
     74 H74        24.3977   -6.5649   -3.9312 H         1 UNK         0.0906 
     75 H75        26.4940   -6.1673   -1.4306 H         1 UNK         0.3140 
     76 H76        27.6132   -4.5085   -0.5572 H         1 UNK         0.1085 
     77 H77        29.1240   -3.9531   -3.1447 H         1 UNK         0.0836 
     78 H78        29.2861   -5.4963   -2.3715 H         1 UNK         0.0836 
     79 H79        31.7075   -3.9019   -2.8942 H         1 UNK         0.0731 
     80 H80        32.4791   -3.1545   -1.5206 H         1 UNK         0.0731 
     81 H81        31.6951   -2.3339   -4.6601 H         1 UNK         0.1312 
     82 H82        30.8865    1.8230   -3.9884 H         1 UNK         0.1406 
     83 H83        30.7619   -0.9492   -0.7219 H         1 UNK         0.1631 
     84 H84        31.1247    2.3386   -1.1310 H         1 UNK         0.0717 
     85 H85        30.0078    1.2494   -0.3465 H         1 UNK         0.0717 
     86 H86        28.0102    0.4046   -2.1173 H         1 UNK         0.0934 
     87 H87        26.7116    1.5529   -2.0932 H         1 UNK         0.0934 
     88 H88        28.6087    1.6560   -4.4575 H         1 UNK         0.0739 
     89 H89        27.2311   -0.7674   -3.9344 H         1 UNK         0.3093 
     90 H90        27.2592   -1.8348   -7.3771 H         1 UNK         0.0818 
     91 H91        29.4538   -2.5120   -6.5791 H         1 UNK         0.0819 
     92 H92        28.8780   -2.6760   -4.9281 H         1 UNK         0.0819 
     93 H93        28.3359   -3.8031   -6.1726 H         1 UNK         0.0819 
     94 H94        26.2765   -3.0948   -5.0165 H         1 UNK         0.3041 
     95 H95        22.9693   -1.6589   -5.1764 H         1 UNK         0.0784 
     96 H96        23.0126   -3.6636   -6.6386 H         1 UNK         0.0793 
     97 H97        24.1059   -4.4849   -5.5376 H         1 UNK         0.0793 
     98 H98        22.4645   -4.0911   -5.0264 H         1 UNK         0.0793 
     99 H99        24.2602   -3.3718   -3.2687 H         1 UNK         0.3024 
    100 H100       25.4247   -0.8070   -1.1026 H         1 UNK         0.1171 
    101 H101       23.9074   -1.8974    0.5317 H         1 UNK         0.0786 
    102 H102       22.9804   -0.9039   -0.5792 H         1 UNK         0.0786 
    103 H103       22.9920   -2.6510   -0.7749 H         1 UNK         0.0786 
    104 H104       25.2916   -3.6346   -0.7793 H         1 UNK         0.2977 
    105 H105       25.1124    0.9412   -4.5260 H         1 UNK         0.3127 
    106 H106       24.2596    3.5966   -5.0993 H         1 UNK         0.0770 
    107 H107       22.9785    0.9106   -5.8346 H         1 UNK         0.0814 
    108 H108       22.1766    2.4738   -5.8955 H         1 UNK         0.0814 
    109 H109       22.7021    1.8209   -4.3516 H         1 UNK         0.0814 
    110 H110       25.3044    0.9261   -7.2603 H         1 UNK         0.2983 
    111 H111       24.9165    2.3486   -9.7233 H         1 UNK         0.0947 
    112 H112       26.7838    0.0046   -9.0646 H         1 UNK         0.0806 
    113 H113       25.1152   -0.1309   -9.6130 H         1 UNK         0.0806 
    114 H114       26.3411    0.5407  -10.6786 H         1 UNK         0.0806 
    115 H115       27.6993    1.9814   -7.5455 H         1 UNK         0.3000 
    116 H116       29.5555    3.0789   -7.1575 H         1 UNK         0.0850 
    117 H117       29.6996    5.5124   -7.5527 H         1 UNK         0.0810 
    118 H118       28.0917    5.0990   -6.9804 H         1 UNK         0.0810 
    119 H119       28.3586    5.4503   -8.6874 H         1 UNK         0.0810 
    120 H120       29.7461    1.2261   -9.1457 H         1 UNK         0.3040 
    121 H121       32.0005    2.1937  -10.7207 H         1 UNK         0.0766 
    122 H122       30.0646    2.6808  -12.2469 H         1 UNK         0.0812 
    123 H123       29.4811    1.0292  -12.0574 H         1 UNK         0.0812 
    124 H124       31.0089    1.3392  -12.8727 H         1 UNK         0.0812 
    125 H125       33.2432    0.4982  -11.5048 H         1 UNK         0.3205 
    126 H126       34.3524   -1.3762  -11.5698 H         1 UNK         0.0754 
    127 H127       33.1843   -3.5639  -11.6927 H         1 UNK         0.0769 
    128 H128       32.3832   -2.3582  -12.6856 H         1 UNK         0.0769 
    129 H129       31.6886   -2.8283  -11.1376 H         1 UNK         0.0769 
    130 H130       32.0267   -1.8430   -8.9172 H         1 UNK         0.2981 
    131 H131       32.1438   -2.5805   -6.8518 H         1 UNK         0.0541 
    132 H132       33.3126   -4.5650   -8.8928 H         1 UNK         0.3459 
    133 H133       34.0590   -5.7380   -7.8360 H         1 UNK         0.3459 
    134 H134       33.9132   -1.6770   -5.3385 H         1 UNK         0.0612 
    135 H135       34.9341   -1.3383   -6.7015 H         1 UNK         0.0612 
    136 H136       30.9112    0.9759   -6.2304 H         1 UNK         0.0624 
    137 H137       30.9703   -0.7167   -6.5712 H         1 UNK         0.0624 
@<TRIPOS>BOND
     1    1    2 1    
     2    1   72 1    
     3    1   73 1    
     4    1   74 1    
     5    2    3 2    
     6    2    4 am   BACKBONE|DICT|INTERRES
     7    4    5 1    
     8    4   75 1    
     9    5    6 1    
    10    5   35 1    
    11    5   76 1    
    12    6    7 1    
    13    6   77 1    
    14    6   78 1    
    15    7    8 1    
    16    8    9 1    
    17    8   79 1    
    18    8   80 1    
    19    9   10 ar   
    20    9   14 ar   
    21   10   11 ar   
    22   10   81 1    
    23   11   12 ar   
    24   11   71 1    
    25   12   13 ar   
    26   12   82 1    
    27   13   14 ar   
    28   13   15 1    
    29   14   83 1    
    30   15   16 1    
    31   15   84 1    
    32   15   85 1    
    33   16   17 1    
    34   17   18 1    
    35   17   86 1    
    36   17   87 1    
    37   18   19 1    
    38   18   37 1    
    39   18   88 1    
    40   19   20 am   BACKBONE|DICT|INTERRES
    41   19   89 1    
    42   20   21 2    
    43   20   22 1    
    44   22   23 1    
    45   22   24 1    
    46   22   90 1    
    47   23   91 1    
    48   23   92 1    
    49   23   93 1    
    50   24   25 am   BACKBONE|DICT|INTERRES
    51   24   94 1    
    52   25   26 2    
    53   25   27 1    
    54   27   28 1    
    55   27   29 1    
    56   27   95 1    
    57   28   96 1    
    58   28   97 1    
    59   28   98 1    
    60   29   30 am   BACKBONE|DICT|INTERRES
    61   29   99 1    
    62   30   31 2    
    63   30   32 1    
    64   32   33 1    
    65   32   34 1    
    66   32  100 1    
    67   33  101 1    
    68   33  102 1    
    69   33  103 1    
    70   34   35 am   BACKBONE|DICT|INTERRES
    71   34  104 1    
    72   35   36 2    
    73   37   38 2    
    74   37   39 am   BACKBONE|DICT|INTERRES
    75   39   40 1    
    76   39  105 1    
    77   40   41 1    
    78   40   42 1    
    79   40  106 1    
    80   41  107 1    
    81   41  108 1    
    82   41  109 1    
    83   42   43 2    
    84   42   44 am   BACKBONE|DICT|INTERRES
    85   44   45 1    
    86   44  110 1    
    87   45   46 1    
    88   45   47 1    
    89   45  111 1    
    90   46  112 1    
    91   46  113 1    
    92   46  114 1    
    93   47   48 2    
    94   47   49 am   BACKBONE|DICT|INTERRES
    95   49   50 1    
    96   49  115 1    
    97   50   51 1    
    98   50   52 1    
    99   50  116 1    
   100   51  117 1    
   101   51  118 1    
   102   51  119 1    
   103   52   53 2    
   104   52   54 am   BACKBONE|DICT|INTERRES
   105   54   55 1    
   106   54  120 1    
   107   55   56 1    
   108   55   57 1    
   109   55  121 1    
   110   56  122 1    
   111   56  123 1    
   112   56  124 1    
   113   57   58 2    
   114   57   59 am   BACKBONE|DICT|INTERRES
   115   59   60 1    
   116   59  125 1    
   117   60   61 1    
   118   60   62 1    
   119   60  126 1    
   120   61  127 1    
   121   61  128 1    
   122   61  129 1    
   123   62   63 2    
   124   62   64 am   BACKBONE|DICT|INTERRES
   125   64   65 1    
   126   64  130 1    
   127   65   66 1    
   128   65   69 1    
   129   65  131 1    
   130   66   67 am   BACKBONE|DICT|INTERRES
   131   66   68 2    
   132   67  132 1    
   133   67  133 1    
   134   69   70 1    
   135   69  134 1    
   136   69  135 1    
   137   70   71 1    
   138   71  136 1    
   139   71  137 1    
@<TRIPOS>SUBSTRUCTURE
     1 UNK         1 GROUP             0       ****    0 ROOT    
