@<TRIPOS>MOLECULE
3R137
137   139    1
SMALL
USER_CHARGES


@<TRIPOS>ATOM
      1 CA         30.0091   -5.4796   -4.5330 C.3       0 UNK        -0.2020 
      2 C          29.0058   -5.2761   -3.4074 C.2       0 UNK         0.4855 
      3 O          28.3082   -6.2194   -3.0323 O.2       0 UNK        -0.5197 
      4 N          28.9469   -4.0567   -2.8568 N.am      1 UNK        -0.4892 
      5 CA         28.0597   -3.6738   -1.7506 C.3       1 UNK         0.0835 
      6 C6         28.7187   -2.6352   -0.7981 C.3       12 UNK        -0.0855 
      7 S7         30.3687   -3.1843   -0.2211 S.3       12 UNK        -0.2931 
      8 C8         31.4377   -1.7249   -0.4789 C.3       12 UNK         0.0378 
      9 C9         31.2675   -1.0760   -1.8473 C.ar      12 UNK        -0.0802 
     10 C10        31.4634   -1.8112   -3.0206 C.ar      12 UNK        -0.0944 
     11 C11        31.2577   -1.2211   -4.2731 C.ar      12 UNK        -0.0787 
     12 C12        30.8631    0.1183   -4.3431 C.ar      12 UNK        -0.0862 
     13 C13        30.6740    0.8664   -3.1767 C.ar      12 UNK        -0.0733 
     14 C14        30.8887    0.2663   -1.9336 C.ar      12 UNK        -0.0832 
     15 C15        30.2191    2.3180   -3.2571 C.3       12 UNK         0.0240 
     16 S16        28.6096    2.6134   -2.4397 S.3       12 UNK        -0.2522 
     17 C17        27.5578    1.2443   -3.0385 C.3       12 UNK        -0.0967 
     18 CA         27.3618    1.2292   -4.5733 C.3       5 UNK         0.0660 
     19 N          27.0112   -0.1029   -5.0606 N.am      5 UNK        -0.4015 
     20 C          27.1940   -0.5174   -6.3212 C.2       4 UNK         0.4946 
     21 O          27.7354    0.1619   -7.1929 O.2       4 UNK        -0.5353 
     22 CA         26.6504   -1.9099   -6.6798 C.3       4 UNK         0.0277 
     23 CB         27.7203   -2.9849   -6.4391 C.3       4 UNK        -0.1981 
     24 N          25.4333   -2.2415   -5.9321 N.am      4 UNK        -0.4209 
     25 C          24.2520   -1.6407   -6.1437 C.2       3 UNK         0.4942 
     26 O          24.0714   -0.7910   -7.0140 O.2       3 UNK        -0.5208 
     27 CA         23.0826   -1.9990   -5.2112 C.3       3 UNK         0.0250 
     28 CB         22.2669   -3.1604   -5.8001 C.3       3 UNK        -0.1990 
     29 N          23.4774   -2.3290   -3.8409 N.am      3 UNK        -0.4232 
     30 C          24.1810   -1.5476   -3.0091 C.2       2 UNK         0.4993 
     31 O          24.6108   -0.4329   -3.3132 O.2       2 UNK        -0.5286 
     32 CA         24.4959   -2.1255   -1.6145 C.3       2 UNK         0.0209 
     33 CB         23.5798   -3.3035   -1.2118 C.3       2 UNK        -0.1931 
     34 N          25.9016   -2.5234   -1.4404 N.am      2 UNK        -0.4546 
     35 C          26.6712   -3.2367   -2.2801 C.2       1 UNK         0.5154 
     36 O          26.3141   -3.5633   -3.4162 O.2       1 UNK        -0.5181 
     37 C          26.3380    2.2736   -5.0517 C.2       5 UNK         0.5014 
     38 O          26.7411    3.3549   -5.4794 O.2       5 UNK        -0.5248 
     39 N          25.0438    1.9159   -5.0402 N.am      6 UNK        -0.4434 
     40 CA         23.9538    2.7281   -5.5947 C.3       6 UNK         0.0363 
     41 CB         22.6015    2.0733   -5.2747 C.3       6 UNK        -0.1936 
     42 C          24.0974    2.9723   -7.1098 C.2       6 UNK         0.5081 
     43 O          23.8388    4.0834   -7.5723 O.2       6 UNK        -0.5248 
     44 N          24.5481    1.9467   -7.8459 N.am      7 UNK        -0.4718 
     45 CA         24.8994    2.0182   -9.2681 C.3       7 UNK         0.0273 
     46 CB         24.9377    0.5914   -9.8407 C.3       7 UNK        -0.1935 
     47 C          26.2363    2.7350   -9.5456 C.2       7 UNK         0.5018 
     48 O          26.5171    3.0304  -10.7080 O.2       7 UNK        -0.5186 
     49 N          27.0324    2.9854   -8.4948 N.am      8 UNK        -0.4240 
     50 CA         28.3698    3.5873   -8.4996 C.3       8 UNK         0.0235 
     51 CB         28.3043    5.0685   -8.9296 C.3       8 UNK        -0.2000 
     52 C          29.3961    2.7640   -9.3020 C.2       8 UNK         0.4941 
     53 O          30.1893    3.3326  -10.0563 O.2       8 UNK        -0.5273 
     54 N          29.3646    1.4358   -9.1274 N.am      9 UNK        -0.4262 
     55 CA         30.3265    0.5032   -9.7142 C.3       9 UNK         0.0264 
     56 CB         29.7658   -0.9252   -9.6146 C.3       9 UNK        -0.1955 
     57 C          31.6854    0.5906   -9.0012 C.2       9 UNK         0.5031 
     58 O          31.7305    0.8541   -7.7971 O.2       9 UNK        -0.5390 
     59 N          32.7653    0.3315   -9.7491 N.am      10 UNK        -0.4204 
     60 CA         34.1300    0.2691   -9.2166 C.3       10 UNK         0.0237 
     61 CB         35.1388    0.4205  -10.3675 C.3       10 UNK        -0.1985 
     62 C          34.4005   -1.0241   -8.4270 C.2       10 UNK         0.4970 
     63 O          35.1482   -0.9771   -7.4508 O.2       10 UNK        -0.4914 
     64 N          33.8013   -2.1355   -8.8854 N.am      11 UNK        -0.4285 
     65 CA         33.8663   -3.5067   -8.3409 C.3       11 UNK         0.1007 
     66 C          35.2832   -4.0996   -8.0584 C.2       11 UNK         0.5703 
     67 N          36.3411   -3.5982   -8.6843 N.am      11 UNK        -0.7361 
     68 O          35.4264   -5.0594   -7.3040 O.2       11 UNK        -0.4986 
     69 C69        32.8074   -3.7844   -7.2329 C.3       12 UNK        -0.0947 
     70 S70        33.0265   -2.8597   -5.6752 S.3       12 UNK        -0.2240 
     71 C71        31.4099   -2.0340   -5.5517 C.3       12 UNK         0.0194 
     72 H72        30.3306   -6.5201   -4.5721 H         1 UNK         0.0906 
     73 H73        29.5608   -5.2275   -5.4933 H         1 UNK         0.0906 
     74 H74        30.8979   -4.8664   -4.3886 H         1 UNK         0.0906 
     75 H75        29.5397   -3.3178   -3.2046 H         1 UNK         0.3140 
     76 H76        27.8672   -4.5658   -1.1498 H         1 UNK         0.1085 
     77 H77        28.1099   -2.4870    0.0951 H         1 UNK         0.0836 
     78 H78        28.7824   -1.6608   -1.2822 H         1 UNK         0.0836 
     79 H79        32.4791   -2.0252   -0.3564 H         1 UNK         0.0731 
     80 H80        31.2321   -1.0070    0.3167 H         1 UNK         0.0731 
     81 H81        31.7633   -2.8483   -2.9550 H         1 UNK         0.1312 
     82 H82        30.6928    0.5751   -5.3092 H         1 UNK         0.1406 
     83 H83        30.7319    0.8443   -1.0326 H         1 UNK         0.1631 
     84 H84        30.1595    2.6514   -4.2942 H         1 UNK         0.0717 
     85 H85        30.9711    2.9505   -2.7836 H         1 UNK         0.0717 
     86 H86        28.0174    0.3113   -2.7100 H         1 UNK         0.0934 
     87 H87        26.5984    1.2868   -2.5190 H         1 UNK         0.0934 
     88 H88        28.3111    1.4865   -5.0438 H         1 UNK         0.0739 
     89 H89        26.4799   -0.6868   -4.4278 H         1 UNK         0.3093 
     90 H90        26.4056   -1.9072   -7.7442 H         1 UNK         0.0818 
     91 H91        28.0560   -2.9912   -5.4026 H         1 UNK         0.0819 
     92 H92        27.3455   -3.9805   -6.6768 H         1 UNK         0.0819 
     93 H93        28.5952   -2.8103   -7.0655 H         1 UNK         0.0819 
     94 H94        25.5299   -2.8927   -5.1573 H         1 UNK         0.3041 
     95 H95        22.4321   -1.1251   -5.1533 H         1 UNK         0.0784 
     96 H96        21.9373   -2.9307   -6.8146 H         1 UNK         0.0793 
     97 H97        22.8506   -4.0807   -5.8476 H         1 UNK         0.0793 
     98 H98        21.3724   -3.3587   -5.2091 H         1 UNK         0.0793 
     99 H99        23.2076   -3.2422   -3.5054 H         1 UNK         0.3024 
    100 H100       24.3105   -1.3101   -0.9129 H         1 UNK         0.1171 
    101 H101       23.7346   -3.5755   -0.1675 H         1 UNK         0.0786 
    102 H102       22.5253   -3.0425   -1.3154 H         1 UNK         0.0786 
    103 H103       23.7671   -4.1961   -1.8101 H         1 UNK         0.0786 
    104 H104       26.3016   -2.2678   -0.5487 H         1 UNK         0.2977 
    105 H105       24.7920    1.0271   -4.6158 H         1 UNK         0.3127 
    106 H106       23.9871    3.7000   -5.0978 H         1 UNK         0.0770 
    107 H107       22.4776    1.1279   -5.8016 H         1 UNK         0.0814 
    108 H108       21.7776    2.7209   -5.5772 H         1 UNK         0.0814 
    109 H109       22.4907    1.8830   -4.2069 H         1 UNK         0.0814 
    110 H110       24.6388    1.0347   -7.4056 H         1 UNK         0.2983 
    111 H111       24.1182    2.5769   -9.7881 H         1 UNK         0.0947 
    112 H112       25.1537    0.6019  -10.9099 H         1 UNK         0.0806 
    113 H113       23.9815    0.0846   -9.7090 H         1 UNK         0.0806 
    114 H114       25.7067   -0.0130   -9.3580 H         1 UNK         0.0806 
    115 H115       26.6951    2.7085   -7.5814 H         1 UNK         0.3000 
    116 H116       28.7138    3.5629   -7.4644 H         1 UNK         0.0850 
    117 H117       29.2747    5.5523   -8.8123 H         1 UNK         0.0810 
    118 H118       27.5903    5.6249   -8.3222 H         1 UNK         0.0810 
    119 H119       28.0123    5.1754   -9.9747 H         1 UNK         0.0810 
    120 H120       28.7147    1.0423   -8.4470 H         1 UNK         0.3040 
    121 H121       30.4550    0.7585  -10.7683 H         1 UNK         0.0766 
    122 H122       30.4191   -1.6410  -10.1146 H         1 UNK         0.0812 
    123 H123       29.6684   -1.2435   -8.5764 H         1 UNK         0.0812 
    124 H124       28.7830   -1.0006  -10.0805 H         1 UNK         0.0812 
    125 H125       32.6469    0.1449  -10.7351 H         1 UNK         0.3205 
    126 H126       34.2715    1.1088   -8.5321 H         1 UNK         0.0754 
    127 H127       36.1633    0.3990   -9.9927 H         1 UNK         0.0769 
    128 H128       35.0070    1.3700  -10.8869 H         1 UNK         0.0769 
    129 H129       35.0434   -0.3803  -11.1020 H         1 UNK         0.0769 
    130 H130       33.2385   -2.0424   -9.7167 H         1 UNK         0.2981 
    131 H131       33.5401   -4.1146   -9.1855 H         1 UNK         0.0541 
    132 H132       36.2429   -2.8126   -9.3064 H         1 UNK         0.3459 
    133 H133       37.2507   -3.9953   -8.5099 H         1 UNK         0.3459 
    134 H134       31.8164   -3.5705   -7.6358 H         1 UNK         0.0612 
    135 H135       32.7862   -4.8474   -6.9870 H         1 UNK         0.0612 
    136 H136       31.2758   -1.4023   -6.4304 H         1 UNK         0.0624 
    137 H137       30.6192   -2.7820   -5.5864 H         1 UNK         0.0624 
@<TRIPOS>BOND
     1    1    2 1    
     2    1   72 1    
     3    1   73 1    
     4    1   74 1    
     5    2    3 2    
     6    2    4 am   BACKBONE|DICT|INTERRES
     7    4    5 1    
     8    4   75 1    
     9    5    6 1    
    10    5   35 1    
    11    5   76 1    
    12    6    7 1    
    13    6   77 1    
    14    6   78 1    
    15    7    8 1    
    16    8    9 1    
    17    8   79 1    
    18    8   80 1    
    19    9   10 ar   
    20    9   14 ar   
    21   10   11 ar   
    22   10   81 1    
    23   11   12 ar   
    24   11   71 1    
    25   12   13 ar   
    26   12   82 1    
    27   13   14 ar   
    28   13   15 1    
    29   14   83 1    
    30   15   16 1    
    31   15   84 1    
    32   15   85 1    
    33   16   17 1    
    34   17   18 1    
    35   17   86 1    
    36   17   87 1    
    37   18   19 1    
    38   18   37 1    
    39   18   88 1    
    40   19   20 am   BACKBONE|DICT|INTERRES
    41   19   89 1    
    42   20   21 2    
    43   20   22 1    
    44   22   23 1    
    45   22   24 1    
    46   22   90 1    
    47   23   91 1    
    48   23   92 1    
    49   23   93 1    
    50   24   25 am   BACKBONE|DICT|INTERRES
    51   24   94 1    
    52   25   26 2    
    53   25   27 1    
    54   27   28 1    
    55   27   29 1    
    56   27   95 1    
    57   28   96 1    
    58   28   97 1    
    59   28   98 1    
    60   29   30 am   BACKBONE|DICT|INTERRES
    61   29   99 1    
    62   30   31 2    
    63   30   32 1    
    64   32   33 1    
    65   32   34 1    
    66   32  100 1    
    67   33  101 1    
    68   33  102 1    
    69   33  103 1    
    70   34   35 am   BACKBONE|DICT|INTERRES
    71   34  104 1    
    72   35   36 2    
    73   37   38 2    
    74   37   39 am   BACKBONE|DICT|INTERRES
    75   39   40 1    
    76   39  105 1    
    77   40   41 1    
    78   40   42 1    
    79   40  106 1    
    80   41  107 1    
    81   41  108 1    
    82   41  109 1    
    83   42   43 2    
    84   42   44 am   BACKBONE|DICT|INTERRES
    85   44   45 1    
    86   44  110 1    
    87   45   46 1    
    88   45   47 1    
    89   45  111 1    
    90   46  112 1    
    91   46  113 1    
    92   46  114 1    
    93   47   48 2    
    94   47   49 am   BACKBONE|DICT|INTERRES
    95   49   50 1    
    96   49  115 1    
    97   50   51 1    
    98   50   52 1    
    99   50  116 1    
   100   51  117 1    
   101   51  118 1    
   102   51  119 1    
   103   52   53 2    
   104   52   54 am   BACKBONE|DICT|INTERRES
   105   54   55 1    
   106   54  120 1    
   107   55   56 1    
   108   55   57 1    
   109   55  121 1    
   110   56  122 1    
   111   56  123 1    
   112   56  124 1    
   113   57   58 2    
   114   57   59 am   BACKBONE|DICT|INTERRES
   115   59   60 1    
   116   59  125 1    
   117   60   61 1    
   118   60   62 1    
   119   60  126 1    
   120   61  127 1    
   121   61  128 1    
   122   61  129 1    
   123   62   63 2    
   124   62   64 am   BACKBONE|DICT|INTERRES
   125   64   65 1    
   126   64  130 1    
   127   65   66 1    
   128   65   69 1    
   129   65  131 1    
   130   66   67 am   BACKBONE|DICT|INTERRES
   131   66   68 2    
   132   67  132 1    
   133   67  133 1    
   134   69   70 1    
   135   69  134 1    
   136   69  135 1    
   137   70   71 1    
   138   71  136 1    
   139   71  137 1    
@<TRIPOS>SUBSTRUCTURE
     1 UNK         1 GROUP             0       ****    0 ROOT    
