@<TRIPOS>MOLECULE
3R137
137   139    1
SMALL
USER_CHARGES


@<TRIPOS>ATOM
      1 CA         24.2800   -6.5309   -3.8224 C.3       0 UNK        -0.2020 
      2 C          25.3729   -5.5160   -3.5253 C.2       0 UNK         0.4855 
      3 O          25.6978   -4.7045   -4.3906 O.2       0 UNK        -0.5197 
      4 N          25.9261   -5.5481   -2.3042 N.am      1 UNK        -0.4892 
      5 CA         27.0063   -4.6846   -1.8042 C.3       1 UNK         0.0835 
      6 C6         28.3871   -5.0377   -2.4239 C.3       12 UNK        -0.0855 
      7 S7         29.7442   -4.8011   -1.2285 S.3       12 UNK        -0.2931 
      8 C8         31.1176   -4.2707   -2.3102 C.3       12 UNK         0.0378 
      9 C9         31.2635   -2.7614   -2.5215 C.ar      12 UNK        -0.0802 
     10 C10        32.0326   -2.3183   -3.6015 C.ar      12 UNK        -0.0944 
     11 C11        32.2701   -0.9566   -3.8070 C.ar      12 UNK        -0.0787 
     12 C12        31.7375   -0.0253   -2.9131 C.ar      12 UNK        -0.0862 
     13 C13        30.9640   -0.4454   -1.8269 C.ar      12 UNK        -0.0733 
     14 C14        30.7274   -1.8126   -1.6394 C.ar      12 UNK        -0.0832 
     15 C15        30.4193    0.5709   -0.8280 C.3       12 UNK         0.0240 
     16 S16        29.3982    1.8686   -1.6028 S.3       12 UNK        -0.2522 
     17 C17        28.0867    0.8798   -2.3905 C.3       12 UNK        -0.0967 
     18 CA         28.1561    0.9503   -3.9388 C.3       5 UNK         0.0660 
     19 N          27.6984   -0.2931   -4.5655 N.am      5 UNK        -0.4015 
     20 C          27.7321   -0.5544   -5.8812 C.2       4 UNK         0.4946 
     21 O          28.2030    0.2051   -6.7272 O.2       4 UNK        -0.5353 
     22 CA         27.0739   -1.8630   -6.3455 C.3       4 UNK         0.0277 
     23 CB         28.0329   -3.0495   -6.1696 C.3       4 UNK        -0.1981 
     24 N          25.8137   -2.1261   -5.6468 N.am      4 UNK        -0.4209 
     25 C          24.7251   -1.3473   -5.7415 C.2       3 UNK         0.4942 
     26 O          24.6488   -0.3612   -6.4741 O.2       3 UNK        -0.5208 
     27 CA         23.5421   -1.6886   -4.8231 C.3       3 UNK         0.0250 
     28 CB         22.7515   -2.8935   -5.3580 C.3       3 UNK        -0.1990 
     29 N          23.9677   -1.9341   -3.4435 N.am      3 UNK        -0.4232 
     30 C          24.5057   -1.0032   -2.6414 C.2       2 UNK         0.4993 
     31 O          24.6708    0.1711   -2.9679 O.2       2 UNK        -0.5286 
     32 CA         24.9744   -1.4626   -1.2515 C.3       2 UNK         0.0209 
     33 CB         23.8251   -1.3690   -0.2356 C.3       2 UNK        -0.1931 
     34 N          25.5287   -2.8194   -1.2446 N.am      2 UNK        -0.4546 
     35 C          26.6349   -3.1890   -1.9066 C.2       1 UNK         0.5154 
     36 O          27.2905   -2.4191   -2.6111 O.2       1 UNK        -0.5181 
     37 C          27.4047    2.1884   -4.4735 C.2       5 UNK         0.5014 
     38 O          28.0427    3.1800   -4.8301 O.2       5 UNK        -0.5248 
     39 N          26.0665    2.1021   -4.5290 N.am      6 UNK        -0.4434 
     40 CA         25.1819    3.1463   -5.0488 C.3       6 UNK         0.0363 
     41 CB         23.7218    2.7991   -4.7171 C.3       6 UNK        -0.1936 
     42 C          25.3517    3.3846   -6.5578 C.2       6 UNK         0.5081 
     43 O          25.3369    4.5388   -6.9874 O.2       6 UNK        -0.5248 
     44 N          25.5100    2.3020   -7.3329 N.am      7 UNK        -0.4718 
     45 CA         25.7662    2.3521   -8.7743 C.3       7 UNK         0.0273 
     46 CB         25.6038    0.9477   -9.3788 C.3       7 UNK        -0.1935 
     47 C          27.1518    2.9271   -9.1102 C.2       7 UNK         0.5018 
     48 O          27.2624    3.7187  -10.0471 O.2       7 UNK        -0.5186 
     49 N          28.1729    2.5067   -8.3466 N.am      8 UNK        -0.4240 
     50 CA         29.5905    2.8721   -8.4613 C.3       8 UNK         0.0235 
     51 CB         29.8025    4.3622   -8.1225 C.3       8 UNK        -0.2000 
     52 C          30.2265    2.4697   -9.8075 C.2       8 UNK         0.4941 
     53 O          31.2100    3.0806  -10.2330 O.2       8 UNK        -0.5273 
     54 N          29.6726    1.4356  -10.4562 N.am      9 UNK        -0.4262 
     55 CA         30.1205    0.8895  -11.7383 C.3       9 UNK         0.0264 
     56 CB         28.9521    0.1217  -12.3844 C.3       9 UNK        -0.1955 
     57 C          31.3703    0.0143  -11.5454 C.2       9 UNK         0.5031 
     58 O          31.2912   -1.2109  -11.6586 O.2       9 UNK        -0.5390 
     59 N          32.4841    0.6599  -11.1738 N.am      10 UNK        -0.4204 
     60 CA         33.7910    0.1125  -10.7775 C.3       10 UNK         0.0237 
     61 CB         34.4284   -0.7319  -11.8986 C.3       10 UNK        -0.1985 
     62 C          33.7683   -0.6535   -9.4411 C.2       10 UNK         0.4970 
     63 O          34.6764   -0.4560   -8.6345 O.2       10 UNK        -0.4914 
     64 N          32.7404   -1.4893   -9.2436 N.am      11 UNK        -0.4285 
     65 CA         32.3403   -2.2749   -8.0599 C.3       11 UNK         0.1007 
     66 C          33.3937   -3.1968   -7.3732 C.2       11 UNK         0.5703 
     67 N          34.6824   -3.0867   -7.6570 N.am      11 UNK        -0.7361 
     68 O          33.0210   -4.0704   -6.5944 O.2       11 UNK        -0.4986 
     69 C69        31.4659   -1.4729   -7.0487 C.3       12 UNK        -0.0947 
     70 S70        32.1758    0.0773   -6.3942 S.3       12 UNK        -0.2240 
     71 C71        33.1450   -0.4935   -4.9630 C.3       12 UNK         0.0194 
     72 H72        24.5448   -7.1172   -4.7018 H         1 UNK         0.0906 
     73 H73        24.1230   -7.2187   -2.9918 H         1 UNK         0.0906 
     74 H74        23.3385   -6.0211   -4.0244 H         1 UNK         0.0906 
     75 H75        25.5927   -6.2363   -1.6422 H         1 UNK         0.3140 
     76 H76        27.0586   -4.9010   -0.7355 H         1 UNK         0.1085 
     77 H77        28.5783   -4.4842   -3.3429 H         1 UNK         0.0836 
     78 H78        28.4097   -6.0899   -2.7120 H         1 UNK         0.0836 
     79 H79        31.0262   -4.7757   -3.2735 H         1 UNK         0.0731 
     80 H80        32.0465   -4.6324   -1.8676 H         1 UNK         0.0731 
     81 H81        32.4685   -3.0416   -4.2761 H         1 UNK         0.1312 
     82 H82        31.9302    1.0289   -3.0588 H         1 UNK         0.1406 
     83 H83        30.1450   -2.1338   -0.7878 H         1 UNK         0.1631 
     84 H84        31.2580    1.0445   -0.3162 H         1 UNK         0.0717 
     85 H85        29.8276    0.0783   -0.0548 H         1 UNK         0.0717 
     86 H86        28.1986   -0.1484   -2.0506 H         1 UNK         0.0934 
     87 H87        27.1161    1.2010   -2.0074 H         1 UNK         0.0934 
     88 H88        29.2021    1.0522   -4.2377 H         1 UNK         0.0739 
     89 H89        27.3513   -1.0146   -3.9386 H         1 UNK         0.3093 
     90 H90        26.8449   -1.7661   -7.4087 H         1 UNK         0.0818 
     91 H91        28.9055   -2.9414   -6.8129 H         1 UNK         0.0819 
     92 H92        28.3905   -3.1255   -5.1434 H         1 UNK         0.0819 
     93 H93        27.5543   -3.9935   -6.4305 H         1 UNK         0.0819 
     94 H94        25.7861   -2.9487   -5.0463 H         1 UNK         0.3041 
     95 H95        22.8733   -0.8250   -4.8135 H         1 UNK         0.0784 
     96 H96        22.3876   -2.6992   -6.3678 H         1 UNK         0.0793 
     97 H97        23.3613   -3.7958   -5.4026 H         1 UNK         0.0793 
     98 H98        21.8813   -3.1054   -4.7366 H         1 UNK         0.0793 
     99 H99        23.9044   -2.8821   -3.1040 H         1 UNK         0.3024 
    100 H100       25.7659   -0.7793   -0.9357 H         1 UNK         0.1171 
    101 H101       24.1669   -1.6011    0.7732 H         1 UNK         0.0786 
    102 H102       23.4094   -0.3605   -0.2102 H         1 UNK         0.0786 
    103 H103       23.0101   -2.0512   -0.4806 H         1 UNK         0.0786 
    104 H104       25.0284   -3.5156   -0.7104 H         1 UNK         0.2977 
    105 H105       25.6111    1.2728   -4.1516 H         1 UNK         0.3127 
    106 H106       25.4337    4.0777   -4.5374 H         1 UNK         0.0770 
    107 H107       23.4205    1.8526   -5.1677 H         1 UNK         0.0814 
    108 H108       23.0427    3.5689   -5.0859 H         1 UNK         0.0814 
    109 H109       23.5685    2.7194   -3.6408 H         1 UNK         0.0814 
    110 H110       25.4367    1.3799   -6.9101 H         1 UNK         0.2983 
    111 H111       25.0180    3.0064   -9.2271 H         1 UNK         0.0947 
    112 H112       25.7834    0.9605  -10.4547 H         1 UNK         0.0806 
    113 H113       24.5948    0.5654   -9.2228 H         1 UNK         0.0806 
    114 H114       26.3005    0.2343   -8.9374 H         1 UNK         0.0806 
    115 H115       27.9785    1.8006   -7.6370 H         1 UNK         0.3000 
    116 H116       30.1082    2.2852   -7.7005 H         1 UNK         0.0850 
    117 H117       30.8644    4.6032   -8.0609 H         1 UNK         0.0810 
    118 H118       29.3579    4.6135   -7.1592 H         1 UNK         0.0810 
    119 H119       29.3632    5.0155   -8.8768 H         1 UNK         0.0810 
    120 H120       28.8951    0.9681  -10.0136 H         1 UNK         0.3040 
    121 H121       30.3890    1.7135  -12.4031 H         1 UNK         0.0766 
    122 H122       28.0982    0.7760  -12.5617 H         1 UNK         0.0812 
    123 H123       28.6154   -0.7072  -11.7603 H         1 UNK         0.0812 
    124 H124       29.2459   -0.2948  -13.3488 H         1 UNK         0.0812 
    125 H125       32.3723    1.6583  -11.0124 H         1 UNK         0.3205 
    126 H126       34.4317    0.9824  -10.6232 H         1 UNK         0.0754 
    127 H127       35.4412   -1.0331  -11.6279 H         1 UNK         0.0769 
    128 H128       34.4960   -0.1681  -12.8290 H         1 UNK         0.0769 
    129 H129       33.8648   -1.6434  -12.0992 H         1 UNK         0.0769 
    130 H130       32.1087   -1.5791  -10.0357 H         1 UNK         0.2981 
    131 H131       31.6578   -3.0040   -8.4984 H         1 UNK         0.0541 
    132 H132       34.9922   -2.2917   -8.2039 H         1 UNK         0.3459 
    133 H133       35.3486   -3.7036   -7.2212 H         1 UNK         0.3459 
    134 H134       30.5427   -1.1840   -7.5527 H         1 UNK         0.0612 
    135 H135       31.1434   -2.1035   -6.2202 H         1 UNK         0.0612 
    136 H136       33.8290   -1.2841   -5.2717 H         1 UNK         0.0624 
    137 H137       33.7769    0.3300   -4.6277 H         1 UNK         0.0624 
@<TRIPOS>BOND
     1    1    2 1    
     2    1   72 1    
     3    1   73 1    
     4    1   74 1    
     5    2    3 2    
     6    2    4 am   BACKBONE|DICT|INTERRES
     7    4    5 1    
     8    4   75 1    
     9    5    6 1    
    10    5   35 1    
    11    5   76 1    
    12    6    7 1    
    13    6   77 1    
    14    6   78 1    
    15    7    8 1    
    16    8    9 1    
    17    8   79 1    
    18    8   80 1    
    19    9   10 ar   
    20    9   14 ar   
    21   10   11 ar   
    22   10   81 1    
    23   11   12 ar   
    24   11   71 1    
    25   12   13 ar   
    26   12   82 1    
    27   13   14 ar   
    28   13   15 1    
    29   14   83 1    
    30   15   16 1    
    31   15   84 1    
    32   15   85 1    
    33   16   17 1    
    34   17   18 1    
    35   17   86 1    
    36   17   87 1    
    37   18   19 1    
    38   18   37 1    
    39   18   88 1    
    40   19   20 am   BACKBONE|DICT|INTERRES
    41   19   89 1    
    42   20   21 2    
    43   20   22 1    
    44   22   23 1    
    45   22   24 1    
    46   22   90 1    
    47   23   91 1    
    48   23   92 1    
    49   23   93 1    
    50   24   25 am   BACKBONE|DICT|INTERRES
    51   24   94 1    
    52   25   26 2    
    53   25   27 1    
    54   27   28 1    
    55   27   29 1    
    56   27   95 1    
    57   28   96 1    
    58   28   97 1    
    59   28   98 1    
    60   29   30 am   BACKBONE|DICT|INTERRES
    61   29   99 1    
    62   30   31 2    
    63   30   32 1    
    64   32   33 1    
    65   32   34 1    
    66   32  100 1    
    67   33  101 1    
    68   33  102 1    
    69   33  103 1    
    70   34   35 am   BACKBONE|DICT|INTERRES
    71   34  104 1    
    72   35   36 2    
    73   37   38 2    
    74   37   39 am   BACKBONE|DICT|INTERRES
    75   39   40 1    
    76   39  105 1    
    77   40   41 1    
    78   40   42 1    
    79   40  106 1    
    80   41  107 1    
    81   41  108 1    
    82   41  109 1    
    83   42   43 2    
    84   42   44 am   BACKBONE|DICT|INTERRES
    85   44   45 1    
    86   44  110 1    
    87   45   46 1    
    88   45   47 1    
    89   45  111 1    
    90   46  112 1    
    91   46  113 1    
    92   46  114 1    
    93   47   48 2    
    94   47   49 am   BACKBONE|DICT|INTERRES
    95   49   50 1    
    96   49  115 1    
    97   50   51 1    
    98   50   52 1    
    99   50  116 1    
   100   51  117 1    
   101   51  118 1    
   102   51  119 1    
   103   52   53 2    
   104   52   54 am   BACKBONE|DICT|INTERRES
   105   54   55 1    
   106   54  120 1    
   107   55   56 1    
   108   55   57 1    
   109   55  121 1    
   110   56  122 1    
   111   56  123 1    
   112   56  124 1    
   113   57   58 2    
   114   57   59 am   BACKBONE|DICT|INTERRES
   115   59   60 1    
   116   59  125 1    
   117   60   61 1    
   118   60   62 1    
   119   60  126 1    
   120   61  127 1    
   121   61  128 1    
   122   61  129 1    
   123   62   63 2    
   124   62   64 am   BACKBONE|DICT|INTERRES
   125   64   65 1    
   126   64  130 1    
   127   65   66 1    
   128   65   69 1    
   129   65  131 1    
   130   66   67 am   BACKBONE|DICT|INTERRES
   131   66   68 2    
   132   67  132 1    
   133   67  133 1    
   134   69   70 1    
   135   69  134 1    
   136   69  135 1    
   137   70   71 1    
   138   71  136 1    
   139   71  137 1    
@<TRIPOS>SUBSTRUCTURE
     1 UNK         1 GROUP             0       ****    0 ROOT    
