@<TRIPOS>MOLECULE
3R137
137   139    1
SMALL
USER_CHARGES


@<TRIPOS>ATOM
      1 CA         25.8008   -6.0750   -8.5820 C.3       0 UNK        -0.2020 
      2 C          26.1363   -6.2750   -7.1118 C.2       0 UNK         0.4855 
      3 O          25.5700   -7.1592   -6.4695 O.2       0 UNK        -0.5197 
      4 N          27.0513   -5.4584   -6.5734 N.am      1 UNK        -0.4892 
      5 CA         27.5071   -5.5039   -5.1734 C.3       1 UNK         0.0835 
      6 C6         28.8109   -4.6775   -4.9942 C.3       12 UNK        -0.0855 
      7 S7         30.0663   -5.5240   -3.9770 S.3       12 UNK        -0.2931 
      8 C8         29.9579   -4.6396   -2.3869 C.3       12 UNK         0.0378 
      9 C9         30.3266   -3.1659   -2.5022 C.ar      12 UNK        -0.0802 
     10 C10        31.6323   -2.7825   -2.8202 C.ar      12 UNK        -0.0944 
     11 C11        31.9673   -1.4292   -2.9226 C.ar      12 UNK        -0.0787 
     12 C12        30.9936   -0.4568   -2.6755 C.ar      12 UNK        -0.0862 
     13 C13        29.6788   -0.8235   -2.3558 C.ar      12 UNK        -0.0733 
     14 C14        29.3593   -2.1826   -2.2771 C.ar      12 UNK        -0.0832 
     15 C15        28.5610    0.1846   -2.0777 C.3       12 UNK         0.0240 
     16 S16        29.0078    1.9573   -2.1392 S.3       12 UNK        -0.2522 
     17 C17        29.2723    2.3275   -3.9110 C.3       12 UNK        -0.0967 
     18 CA         28.2909    1.6730   -4.9172 C.3       5 UNK         0.0660 
     19 N          26.8811    1.9297   -4.5729 N.am      5 UNK        -0.4015 
     20 C          25.7915    1.7200   -5.3288 C.2       4 UNK         0.4946 
     21 O          25.8246    1.4123   -6.5220 O.2       4 UNK        -0.5353 
     22 CA         24.4302    1.8482   -4.6199 C.3       4 UNK         0.0277 
     23 CB         23.2510    1.8220   -5.6112 C.3       4 UNK        -0.1981 
     24 N          24.2472    0.7729   -3.6413 N.am      4 UNK        -0.4209 
     25 C          24.7843    0.7498   -2.4140 C.2       3 UNK         0.4942 
     26 O          25.4597    1.6743   -1.9606 O.2       3 UNK        -0.5208 
     27 CA         24.5466   -0.5007   -1.5431 C.3       3 UNK         0.0250 
     28 CB         23.4657   -0.2171   -0.4873 C.3       3 UNK        -0.1990 
     29 N          24.1835   -1.7137   -2.2881 N.am      3 UNK        -0.4232 
     30 C          24.9968   -2.3663   -3.1300 C.2       2 UNK         0.4993 
     31 O          26.1403   -1.9900   -3.3906 O.2       2 UNK        -0.5286 
     32 CA         24.4164   -3.6231   -3.8099 C.3       2 UNK         0.0209 
     33 CB         23.2292   -3.2588   -4.7209 C.3       2 UNK        -0.1931 
     34 N          25.4203   -4.3135   -4.6221 N.am      2 UNK        -0.4546 
     35 C          26.4249   -5.0671   -4.1538 C.2       1 UNK         0.5154 
     36 O          26.5210   -5.4095   -2.9741 O.2       1 UNK        -0.5181 
     37 C          28.6983    2.0729   -6.3492 C.2       5 UNK         0.5014 
     38 O          29.3486    1.2815   -7.0355 O.2       5 UNK        -0.5248 
     39 N          28.2959    3.2806   -6.7714 N.am      6 UNK        -0.4434 
     40 CA         28.5897    3.8686   -8.0817 C.3       6 UNK         0.0363 
     41 CB         28.0334    5.3006   -8.1296 C.3       6 UNK        -0.1936 
     42 C          28.0635    3.0529   -9.2764 C.2       6 UNK         0.5081 
     43 O          28.7081    3.0436  -10.3248 O.2       6 UNK        -0.5248 
     44 N          26.9168    2.3862   -9.0975 N.am      7 UNK        -0.4718 
     45 CA         26.3107    1.5009  -10.0931 C.3       7 UNK         0.0273 
     46 CB         24.7865    1.7027  -10.0794 C.3       7 UNK        -0.1935 
     47 C          26.6535    0.0303   -9.8144 C.2       7 UNK         0.5018 
     48 O          26.8222   -0.7425  -10.7578 O.2       7 UNK        -0.5186 
     49 N          26.7300   -0.3299   -8.5269 N.am      8 UNK        -0.4240 
     50 CA         26.9242   -1.6908   -8.0338 C.3       8 UNK         0.0235 
     51 CB         26.6485   -1.7064   -6.5274 C.3       8 UNK        -0.2000 
     52 C          28.3083   -2.2936   -8.3095 C.2       8 UNK         0.4941 
     53 O          28.3958   -3.5193   -8.4080 O.2       8 UNK        -0.5273 
     54 N          29.3493   -1.4538   -8.3908 N.am      9 UNK        -0.4262 
     55 CA         30.7323   -1.8791   -8.6386 C.3       9 UNK         0.0264 
     56 CB         31.3002   -2.6230   -7.4139 C.3       9 UNK        -0.1955 
     57 C          31.6748   -0.7431   -9.0718 C.2       9 UNK         0.5031 
     58 O          32.7090   -1.0422   -9.6691 O.2       9 UNK        -0.5390 
     59 N          31.3334    0.5186   -8.7661 N.am      10 UNK        -0.4204 
     60 CA         32.0795    1.7529   -9.0608 C.3       10 UNK         0.0237 
     61 CB         32.3860    1.9094  -10.5657 C.3       10 UNK        -0.1985 
     62 C          33.3180    1.9854   -8.1713 C.2       10 UNK         0.4970 
     63 O          34.0331    2.9652   -8.3845 O.2       10 UNK        -0.4914 
     64 N          33.5253    1.1289   -7.1644 N.am      11 UNK        -0.4285 
     65 CA         34.5290    1.2784   -6.0968 C.3       11 UNK         0.1007 
     66 C          34.1389    2.2925   -4.9803 C.2       11 UNK         0.5703 
     67 N          32.9386    2.8612   -4.9813 N.am      11 UNK        -0.7361 
     68 O          34.9490    2.5801   -4.1025 O.2       11 UNK        -0.4986 
     69 C69        34.9608   -0.0986   -5.5160 C.3       12 UNK        -0.0947 
     70 S70        33.5614   -1.2030   -5.1310 S.3       12 UNK        -0.2240 
     71 C71        33.3712   -1.0148   -3.3352 C.3       12 UNK         0.0194 
     72 H72        26.0039   -6.9884   -9.1404 H         1 UNK         0.0906 
     73 H73        24.7445   -5.8330   -8.6966 H         1 UNK         0.0906 
     74 H74        26.3834   -5.2696   -9.0288 H         1 UNK         0.0906 
     75 H75        27.5187   -4.7818   -7.1734 H         1 UNK         0.3140 
     76 H76        27.7227   -6.5530   -4.9576 H         1 UNK         0.1085 
     77 H77        28.6149   -3.6722   -4.6162 H         1 UNK         0.0836 
     78 H78        29.2881   -4.5190   -5.9606 H         1 UNK         0.0836 
     79 H79        28.9533   -4.7599   -1.9791 H         1 UNK         0.0731 
     80 H80        30.6323   -5.1172   -1.6749 H         1 UNK         0.0731 
     81 H81        32.3819   -3.5382   -3.0120 H         1 UNK         0.1312 
     82 H82        31.2761    0.5826   -2.7413 H         1 UNK         0.1406 
     83 H83        28.3458   -2.4768   -2.0369 H         1 UNK         0.1631 
     84 H84        28.1763   -0.0117   -1.0760 H         1 UNK         0.0717 
     85 H85        27.7280   -0.0063   -2.7518 H         1 UNK         0.0717 
     86 H86        29.2402    3.4147   -4.0081 H         1 UNK         0.0934 
     87 H87        30.2970    2.0456   -4.1564 H         1 UNK         0.0934 
     88 H88        28.4298    0.5935   -4.8602 H         1 UNK         0.0739 
     89 H89        26.7138    2.1412   -3.5945 H         1 UNK         0.3093 
     90 H90        24.4131    2.8117   -4.1057 H         1 UNK         0.0818 
     91 H91        22.2994    1.9701   -5.1005 H         1 UNK         0.0819 
     92 H92        23.3469    2.6169   -6.3522 H         1 UNK         0.0819 
     93 H93        23.1978    0.8772   -6.1541 H         1 UNK         0.0819 
     94 H94        23.7302   -0.0369   -3.9493 H         1 UNK         0.3041 
     95 H95        25.4844   -0.7044   -1.0215 H         1 UNK         0.0784 
     96 H96        23.7216    0.6608    0.1081 H         1 UNK         0.0793 
     97 H97        22.4936   -0.0280   -0.9446 H         1 UNK         0.0793 
     98 H98        23.3564   -1.0526    0.2046 H         1 UNK         0.0793 
     99 H99        23.2555   -2.0785   -2.1260 H         1 UNK         0.3024 
    100 H100       24.0737   -4.3037   -3.0271 H         1 UNK         0.1171 
    101 H101       22.4088   -2.8182   -4.1535 H         1 UNK         0.0786 
    102 H102       22.8291   -4.1425   -5.2189 H         1 UNK         0.0786 
    103 H103       23.5141   -2.5427   -5.4927 H         1 UNK         0.0786 
    104 H104       25.4294   -4.0949   -5.6062 H         1 UNK         0.2977 
    105 H105       27.7427    3.8426   -6.1408 H         1 UNK         0.3127 
    106 H106       29.6745    3.9290   -8.1763 H         1 UNK         0.0770 
    107 H107       26.9497    5.3175   -8.0061 H         1 UNK         0.0814 
    108 H108       28.2590    5.7746   -9.0861 H         1 UNK         0.0814 
    109 H109       28.4717    5.9248   -7.3508 H         1 UNK         0.0814 
    110 H110       26.4830    2.4008   -8.1800 H         1 UNK         0.2983 
    111 H111       26.6776    1.7461  -11.0925 H         1 UNK         0.0947 
    112 H112       24.3001    1.0558  -10.8108 H         1 UNK         0.0806 
    113 H113       24.5220    2.7303  -10.3293 H         1 UNK         0.0806 
    114 H114       24.3562    1.4746   -9.1029 H         1 UNK         0.0806 
    115 H115       26.5174    0.3719   -7.8200 H         1 UNK         0.3000 
    116 H116       26.1889   -2.3314   -8.5252 H         1 UNK         0.0850 
    117 H117       26.8497   -2.6856   -6.1039 H         1 UNK         0.0810 
    118 H118       25.6124   -1.4526   -6.3050 H         1 UNK         0.0810 
    119 H119       27.2861   -1.0037   -5.9945 H         1 UNK         0.0810 
    120 H120       29.1745   -0.4652   -8.2598 H         1 UNK         0.3040 
    121 H121       30.7151   -2.5780   -9.4778 H         1 UNK         0.0766 
    122 H122       32.3806   -2.7543   -7.4890 H         1 UNK         0.0812 
    123 H123       30.8753   -3.6213   -7.3279 H         1 UNK         0.0812 
    124 H124       31.0924   -2.0891   -6.4861 H         1 UNK         0.0812 
    125 H125       30.5155    0.6784   -8.1775 H         1 UNK         0.3205 
    126 H126       31.3950    2.5587   -8.8005 H         1 UNK         0.0754 
    127 H127       32.7629    2.9092  -10.7844 H         1 UNK         0.0769 
    128 H128       31.4887    1.7658  -11.1681 H         1 UNK         0.0769 
    129 H129       33.1408    1.2010  -10.9071 H         1 UNK         0.0769 
    130 H130       32.8990    0.3452   -7.0570 H         1 UNK         0.2981 
    131 H131       35.4208    1.7091   -6.5559 H         1 UNK         0.0541 
    132 H132       32.2758    2.6510   -5.7075 H         1 UNK         0.3459 
    133 H133       32.7130    3.5273   -4.2600 H         1 UNK         0.3459 
    134 H134       35.6023    0.0114   -4.6395 H         1 UNK         0.0612 
    135 H135       35.5725   -0.6151   -6.2570 H         1 UNK         0.0612 
    136 H136       34.1145   -1.6271   -2.8228 H         1 UNK         0.0624 
    137 H137       33.5630    0.0198   -3.0475 H         1 UNK         0.0624 
@<TRIPOS>BOND
     1    1    2 1    
     2    1   72 1    
     3    1   73 1    
     4    1   74 1    
     5    2    3 2    
     6    2    4 am   BACKBONE|DICT|INTERRES
     7    4    5 1    
     8    4   75 1    
     9    5    6 1    
    10    5   35 1    
    11    5   76 1    
    12    6    7 1    
    13    6   77 1    
    14    6   78 1    
    15    7    8 1    
    16    8    9 1    
    17    8   79 1    
    18    8   80 1    
    19    9   10 ar   
    20    9   14 ar   
    21   10   11 ar   
    22   10   81 1    
    23   11   12 ar   
    24   11   71 1    
    25   12   13 ar   
    26   12   82 1    
    27   13   14 ar   
    28   13   15 1    
    29   14   83 1    
    30   15   16 1    
    31   15   84 1    
    32   15   85 1    
    33   16   17 1    
    34   17   18 1    
    35   17   86 1    
    36   17   87 1    
    37   18   19 1    
    38   18   37 1    
    39   18   88 1    
    40   19   20 am   BACKBONE|DICT|INTERRES
    41   19   89 1    
    42   20   21 2    
    43   20   22 1    
    44   22   23 1    
    45   22   24 1    
    46   22   90 1    
    47   23   91 1    
    48   23   92 1    
    49   23   93 1    
    50   24   25 am   BACKBONE|DICT|INTERRES
    51   24   94 1    
    52   25   26 2    
    53   25   27 1    
    54   27   28 1    
    55   27   29 1    
    56   27   95 1    
    57   28   96 1    
    58   28   97 1    
    59   28   98 1    
    60   29   30 am   BACKBONE|DICT|INTERRES
    61   29   99 1    
    62   30   31 2    
    63   30   32 1    
    64   32   33 1    
    65   32   34 1    
    66   32  100 1    
    67   33  101 1    
    68   33  102 1    
    69   33  103 1    
    70   34   35 am   BACKBONE|DICT|INTERRES
    71   34  104 1    
    72   35   36 2    
    73   37   38 2    
    74   37   39 am   BACKBONE|DICT|INTERRES
    75   39   40 1    
    76   39  105 1    
    77   40   41 1    
    78   40   42 1    
    79   40  106 1    
    80   41  107 1    
    81   41  108 1    
    82   41  109 1    
    83   42   43 2    
    84   42   44 am   BACKBONE|DICT|INTERRES
    85   44   45 1    
    86   44  110 1    
    87   45   46 1    
    88   45   47 1    
    89   45  111 1    
    90   46  112 1    
    91   46  113 1    
    92   46  114 1    
    93   47   48 2    
    94   47   49 am   BACKBONE|DICT|INTERRES
    95   49   50 1    
    96   49  115 1    
    97   50   51 1    
    98   50   52 1    
    99   50  116 1    
   100   51  117 1    
   101   51  118 1    
   102   51  119 1    
   103   52   53 2    
   104   52   54 am   BACKBONE|DICT|INTERRES
   105   54   55 1    
   106   54  120 1    
   107   55   56 1    
   108   55   57 1    
   109   55  121 1    
   110   56  122 1    
   111   56  123 1    
   112   56  124 1    
   113   57   58 2    
   114   57   59 am   BACKBONE|DICT|INTERRES
   115   59   60 1    
   116   59  125 1    
   117   60   61 1    
   118   60   62 1    
   119   60  126 1    
   120   61  127 1    
   121   61  128 1    
   122   61  129 1    
   123   62   63 2    
   124   62   64 am   BACKBONE|DICT|INTERRES
   125   64   65 1    
   126   64  130 1    
   127   65   66 1    
   128   65   69 1    
   129   65  131 1    
   130   66   67 am   BACKBONE|DICT|INTERRES
   131   66   68 2    
   132   67  132 1    
   133   67  133 1    
   134   69   70 1    
   135   69  134 1    
   136   69  135 1    
   137   70   71 1    
   138   71  136 1    
   139   71  137 1    
@<TRIPOS>SUBSTRUCTURE
     1 UNK         1 GROUP             0       ****    0 ROOT    
