@<TRIPOS>MOLECULE
3R137
137   139    1
SMALL
USER_CHARGES


@<TRIPOS>ATOM
      1 CA         25.8203   -5.6739    0.3473 C.3       0 UNK        -0.2020 
      2 C          26.3653   -5.6381   -1.0730 C.2       0 UNK         0.4855 
      3 O          26.7096   -6.6871   -1.6187 O.2       0 UNK        -0.5197 
      4 N          26.4503   -4.4384   -1.6651 N.am      1 UNK        -0.4892 
      5 CA         26.8886   -4.1746   -3.0429 C.3       1 UNK         0.0835 
      6 C6         28.3453   -4.6487   -3.3141 C.3       12 UNK        -0.0855 
      7 S7         29.2120   -3.6414   -4.5700 S.3       12 UNK        -0.2931 
      8 C8         30.8788   -3.5095   -3.8455 C.3       12 UNK         0.0378 
      9 C9         31.1392   -2.1360   -3.2418 C.ar      12 UNK        -0.0802 
     10 C10        32.1060   -1.3035   -3.8128 C.ar      12 UNK        -0.0944 
     11 C11        32.3845   -0.0507   -3.2604 C.ar      12 UNK        -0.0787 
     12 C12        31.6841    0.3711   -2.1276 C.ar      12 UNK        -0.0862 
     13 C13        30.7098   -0.4482   -1.5465 C.ar      12 UNK        -0.0733 
     14 C14        30.4466   -1.7051   -2.1039 C.ar      12 UNK        -0.0832 
     15 C15        29.9598    0.0229   -0.3049 C.3       12 UNK         0.0240 
     16 S16        28.2351    0.5075   -0.6533 S.3       12 UNK        -0.2522 
     17 C17        28.4427    1.7577   -1.9662 C.3       12 UNK        -0.0967 
     18 CA         28.0559    1.1499   -3.3402 C.3       5 UNK         0.0660 
     19 N          26.6068    0.9750   -3.4972 N.am      5 UNK        -0.4015 
     20 C          25.6720    1.9033   -3.7438 C.2       4 UNK         0.4946 
     21 O          25.9193    3.0910   -3.9628 O.2       4 UNK        -0.5353 
     22 CA         24.2075    1.4114   -3.7555 C.3       4 UNK         0.0277 
     23 CB         23.2007    2.5776   -3.7688 C.3       4 UNK        -0.1981 
     24 N          23.9018    0.5154   -4.8763 N.am      4 UNK        -0.4209 
     25 C          24.3749   -0.7269   -5.0317 C.2       3 UNK         0.4942 
     26 O          25.1451   -1.2654   -4.2279 O.2       3 UNK        -0.5208 
     27 CA         23.9265   -1.4963   -6.2853 C.3       3 UNK         0.0250 
     28 CB         24.0655   -0.6736   -7.5803 C.3       3 UNK        -0.1990 
     29 N          24.7580   -2.6886   -6.3561 N.am      3 UNK        -0.4232 
     30 C          24.4249   -3.8928   -6.8259 C.2       2 UNK         0.4993 
     31 O          23.3912   -4.1304   -7.4516 O.2       2 UNK        -0.5286 
     32 CA         25.4156   -5.0334   -6.5164 C.3       2 UNK         0.0209 
     33 CB         26.3009   -5.3251   -7.7391 C.3       2 UNK        -0.1931 
     34 N          26.2761   -4.7467   -5.3590 N.am      2 UNK        -0.4546 
     35 C          25.8590   -4.6777   -4.0861 C.2       1 UNK         0.5154 
     36 O          24.7030   -4.9431   -3.7438 O.2       1 UNK        -0.5181 
     37 C          28.6687    1.8795   -4.5467 C.2       5 UNK         0.5014 
     38 O          28.9011    1.2316   -5.5639 O.2       5 UNK        -0.5248 
     39 N          28.8614    3.2038   -4.4482 N.am      6 UNK        -0.4434 
     40 CA         29.3704    4.0804   -5.5113 C.3       6 UNK         0.0363 
     41 CB         29.4190    5.5245   -4.9875 C.3       6 UNK        -0.1936 
     42 C          28.5833    4.0166   -6.8366 C.2       6 UNK         0.5081 
     43 O          29.1459    4.3299   -7.8855 O.2       6 UNK        -0.5248 
     44 N          27.3090    3.6072   -6.7727 N.am      7 UNK        -0.4718 
     45 CA         26.4579    3.3523   -7.9350 C.3       7 UNK         0.0273 
     46 CB         24.9910    3.3371   -7.4744 C.3       7 UNK        -0.1935 
     47 C          26.7909    2.0462   -8.6863 C.2       7 UNK         0.5018 
     48 O          26.3578    1.9037   -9.8309 O.2       7 UNK        -0.5186 
     49 N          27.4977    1.1018   -8.0469 N.am      8 UNK        -0.4240 
     50 CA         27.8124   -0.2108   -8.6141 C.3       8 UNK         0.0235 
     51 CB         28.0492   -1.2171   -7.4729 C.3       8 UNK        -0.2000 
     52 C          29.0491   -0.1449   -9.5182 C.2       8 UNK         0.4941 
     53 O          29.9975    0.5842   -9.2174 O.2       8 UNK        -0.5273 
     54 N          29.0616   -0.9843  -10.5633 N.am      9 UNK        -0.4262 
     55 CA         30.1870   -1.1533  -11.4937 C.3       9 UNK         0.0264 
     56 CB         29.7519   -2.0593  -12.6570 C.3       9 UNK        -0.1955 
     57 C          31.4679   -1.7010  -10.8333 C.2       9 UNK         0.5031 
     58 O          32.5603   -1.4767  -11.3552 O.2       9 UNK        -0.5390 
     59 N          31.3139   -2.3820   -9.6888 N.am      10 UNK        -0.4204 
     60 CA         32.4006   -2.8274   -8.8149 C.3       10 UNK         0.0237 
     61 CB         31.8322   -3.8141   -7.7808 C.3       10 UNK        -0.1985 
     62 C          33.1290   -1.6713   -8.1011 C.2       10 UNK         0.4970 
     63 O          34.2731   -1.8608   -7.6867 O.2       10 UNK        -0.4914 
     64 N          32.4629   -0.5187   -7.9574 N.am      11 UNK        -0.4285 
     65 CA         32.9931    0.6980   -7.3331 C.3       11 UNK         0.1007 
     66 C          33.3295    1.7815   -8.3904 C.2       11 UNK         0.5703 
     67 N          32.4807    1.9959   -9.3889 N.am      11 UNK        -0.7361 
     68 O          34.3782    2.4175   -8.3175 O.2       11 UNK        -0.4986 
     69 C69        32.0005    1.2239   -6.2665 C.3       12 UNK        -0.0947 
     70 S70        32.7950    2.1603   -4.9189 S.3       12 UNK        -0.2240 
     71 C71        33.4669    0.8302   -3.8700 C.3       12 UNK         0.0194 
     72 H72        24.9185   -6.2843    0.3870 H         1 UNK         0.0906 
     73 H73        26.5572   -6.1103    1.0211 H         1 UNK         0.0906 
     74 H74        25.5722   -4.6787    0.7159 H         1 UNK         0.0906 
     75 H75        26.1129   -3.6264   -1.1666 H         1 UNK         0.3140 
     76 H76        26.8730   -3.0865   -3.1277 H         1 UNK         0.1085 
     77 H77        28.3750   -5.6996   -3.6089 H         1 UNK         0.0836 
     78 H78        28.9134   -4.5950   -2.3847 H         1 UNK         0.0836 
     79 H79        31.0413   -4.2791   -3.0902 H         1 UNK         0.0731 
     80 H80        31.6030   -3.7188   -4.6340 H         1 UNK         0.0731 
     81 H81        32.6500   -1.6314   -4.6886 H         1 UNK         0.1312 
     82 H82        31.9028    1.3395   -1.6986 H         1 UNK         0.1406 
     83 H83        29.6983   -2.3437   -1.6552 H         1 UNK         0.1631 
     84 H84        30.4756    0.8651    0.1592 H         1 UNK         0.0717 
     85 H85        29.9566   -0.7755    0.4385 H         1 UNK         0.0717 
     86 H86        27.8224    2.6238   -1.7294 H         1 UNK         0.0934 
     87 H87        29.4742    2.1129   -1.9563 H         1 UNK         0.0934 
     88 H88        28.4782    0.1444   -3.3906 H         1 UNK         0.0739 
     89 H89        26.2777    0.0137   -3.4575 H         1 UNK         0.3093 
     90 H90        24.0526    0.8561   -2.8276 H         1 UNK         0.0818 
     91 H91        22.1748    2.2193   -3.6812 H         1 UNK         0.0819 
     92 H92        23.3766    3.2544   -2.9315 H         1 UNK         0.0819 
     93 H93        23.2746    3.1673   -4.6834 H         1 UNK         0.0819 
     94 H94        23.2799    0.8829   -5.5814 H         1 UNK         0.3041 
     95 H95        22.8846   -1.7915   -6.1450 H         1 UNK         0.0784 
     96 H96        23.8821   -1.2875   -8.4623 H         1 UNK         0.0793 
     97 H97        23.3496    0.1480   -7.6111 H         1 UNK         0.0793 
     98 H98        25.0607   -0.2445   -7.6755 H         1 UNK         0.0793 
     99 H99        25.5854   -2.6259   -5.7769 H         1 UNK         0.3024 
    100 H100       24.8253   -5.9248   -6.2918 H         1 UNK         0.1171 
    101 H101       26.9209   -4.4680   -8.0038 H         1 UNK         0.0786 
    102 H102       25.6928   -5.5693   -8.6113 H         1 UNK         0.0786 
    103 H103       26.9604   -6.1742   -7.5581 H         1 UNK         0.0786 
    104 H104       27.2446   -4.5186   -5.5490 H         1 UNK         0.2977 
    105 H105       28.5592    3.6627   -3.6013 H         1 UNK         0.3127 
    106 H106       30.3915    3.7684   -5.7307 H         1 UNK         0.0770 
    107 H107       28.4270    5.8876   -4.7156 H         1 UNK         0.0814 
    108 H108       29.8175    6.2011   -5.7450 H         1 UNK         0.0814 
    109 H109       30.0624    5.6087   -4.1116 H         1 UNK         0.0814 
    110 H110       26.9194    3.3967   -5.8598 H         1 UNK         0.2983 
    111 H111       26.5864    4.1746   -8.6424 H         1 UNK         0.0947 
    112 H112       24.3157    3.1973   -8.3198 H         1 UNK         0.0806 
    113 H113       24.7154    4.2748   -6.9914 H         1 UNK         0.0806 
    114 H114       24.8022    2.5284   -6.7690 H         1 UNK         0.0806 
    115 H115       27.9142    1.3071   -7.1407 H         1 UNK         0.3000 
    116 H116       26.9579   -0.5525   -9.2024 H         1 UNK         0.0850 
    117 H117       28.9743   -1.0088   -6.9329 H         1 UNK         0.0810 
    118 H118       27.2370   -1.1986   -6.7471 H         1 UNK         0.0810 
    119 H119       28.1216   -2.2356   -7.8546 H         1 UNK         0.0810 
    120 H120       28.2466   -1.5555  -10.7381 H         1 UNK         0.3040 
    121 H121       30.4305   -0.1685  -11.8985 H         1 UNK         0.0766 
    122 H122       28.9015   -1.6375  -13.1932 H         1 UNK         0.0812 
    123 H123       29.4729   -3.0557  -12.3120 H         1 UNK         0.0812 
    124 H124       30.5596   -2.1799  -13.3805 H         1 UNK         0.0812 
    125 H125       30.3740   -2.5399   -9.3583 H         1 UNK         0.3205 
    126 H126       33.1369   -3.3523   -9.4273 H         1 UNK         0.0754 
    127 H127       32.6181   -4.1869   -7.1223 H         1 UNK         0.0769 
    128 H128       31.3797   -4.6805   -8.2636 H         1 UNK         0.0769 
    129 H129       31.0743   -3.3461   -7.1509 H         1 UNK         0.0769 
    130 H130       31.5457   -0.4163   -8.3760 H         1 UNK         0.2981 
    131 H131       33.9289    0.4520   -6.8291 H         1 UNK         0.0541 
    132 H132       32.6982    2.6921  -10.0829 H         1 UNK         0.3459 
    133 H133       31.5851    1.5141   -9.4139 H         1 UNK         0.3459 
    134 H134       31.4476    0.3986   -5.8193 H         1 UNK         0.0612 
    135 H135       31.2347    1.8484   -6.7288 H         1 UNK         0.0612 
    136 H136       34.1664    0.2289   -4.4523 H         1 UNK         0.0624 
    137 H137       34.0548    1.2834   -3.0706 H         1 UNK         0.0624 
@<TRIPOS>BOND
     1    1    2 1    
     2    1   72 1    
     3    1   73 1    
     4    1   74 1    
     5    2    3 2    
     6    2    4 am   BACKBONE|DICT|INTERRES
     7    4    5 1    
     8    4   75 1    
     9    5    6 1    
    10    5   35 1    
    11    5   76 1    
    12    6    7 1    
    13    6   77 1    
    14    6   78 1    
    15    7    8 1    
    16    8    9 1    
    17    8   79 1    
    18    8   80 1    
    19    9   10 ar   
    20    9   14 ar   
    21   10   11 ar   
    22   10   81 1    
    23   11   12 ar   
    24   11   71 1    
    25   12   13 ar   
    26   12   82 1    
    27   13   14 ar   
    28   13   15 1    
    29   14   83 1    
    30   15   16 1    
    31   15   84 1    
    32   15   85 1    
    33   16   17 1    
    34   17   18 1    
    35   17   86 1    
    36   17   87 1    
    37   18   19 1    
    38   18   37 1    
    39   18   88 1    
    40   19   20 am   BACKBONE|DICT|INTERRES
    41   19   89 1    
    42   20   21 2    
    43   20   22 1    
    44   22   23 1    
    45   22   24 1    
    46   22   90 1    
    47   23   91 1    
    48   23   92 1    
    49   23   93 1    
    50   24   25 am   BACKBONE|DICT|INTERRES
    51   24   94 1    
    52   25   26 2    
    53   25   27 1    
    54   27   28 1    
    55   27   29 1    
    56   27   95 1    
    57   28   96 1    
    58   28   97 1    
    59   28   98 1    
    60   29   30 am   BACKBONE|DICT|INTERRES
    61   29   99 1    
    62   30   31 2    
    63   30   32 1    
    64   32   33 1    
    65   32   34 1    
    66   32  100 1    
    67   33  101 1    
    68   33  102 1    
    69   33  103 1    
    70   34   35 am   BACKBONE|DICT|INTERRES
    71   34  104 1    
    72   35   36 2    
    73   37   38 2    
    74   37   39 am   BACKBONE|DICT|INTERRES
    75   39   40 1    
    76   39  105 1    
    77   40   41 1    
    78   40   42 1    
    79   40  106 1    
    80   41  107 1    
    81   41  108 1    
    82   41  109 1    
    83   42   43 2    
    84   42   44 am   BACKBONE|DICT|INTERRES
    85   44   45 1    
    86   44  110 1    
    87   45   46 1    
    88   45   47 1    
    89   45  111 1    
    90   46  112 1    
    91   46  113 1    
    92   46  114 1    
    93   47   48 2    
    94   47   49 am   BACKBONE|DICT|INTERRES
    95   49   50 1    
    96   49  115 1    
    97   50   51 1    
    98   50   52 1    
    99   50  116 1    
   100   51  117 1    
   101   51  118 1    
   102   51  119 1    
   103   52   53 2    
   104   52   54 am   BACKBONE|DICT|INTERRES
   105   54   55 1    
   106   54  120 1    
   107   55   56 1    
   108   55   57 1    
   109   55  121 1    
   110   56  122 1    
   111   56  123 1    
   112   56  124 1    
   113   57   58 2    
   114   57   59 am   BACKBONE|DICT|INTERRES
   115   59   60 1    
   116   59  125 1    
   117   60   61 1    
   118   60   62 1    
   119   60  126 1    
   120   61  127 1    
   121   61  128 1    
   122   61  129 1    
   123   62   63 2    
   124   62   64 am   BACKBONE|DICT|INTERRES
   125   64   65 1    
   126   64  130 1    
   127   65   66 1    
   128   65   69 1    
   129   65  131 1    
   130   66   67 am   BACKBONE|DICT|INTERRES
   131   66   68 2    
   132   67  132 1    
   133   67  133 1    
   134   69   70 1    
   135   69  134 1    
   136   69  135 1    
   137   70   71 1    
   138   71  136 1    
   139   71  137 1    
@<TRIPOS>SUBSTRUCTURE
     1 UNK         1 GROUP             0       ****    0 ROOT    
