@<TRIPOS>MOLECULE
3R137
137   139    1
SMALL
USER_CHARGES


@<TRIPOS>ATOM
      1 CA         26.6592   -6.2297    1.9053 C.3       0 UNK        -0.2020 
      2 C          26.5034   -4.7172    1.8609 C.2       0 UNK         0.4855 
      3 O          25.5017   -4.1901    2.3450 O.2       0 UNK        -0.5197 
      4 N          27.4886   -4.0152    1.2864 N.am      1 UNK        -0.4892 
      5 CA         27.5028   -2.5563    1.1151 C.3       1 UNK         0.0835 
      6 C6         28.9195   -2.0221    0.7721 C.3       12 UNK        -0.0855 
      7 S7         29.7765   -2.9586   -0.5443 S.3       12 UNK        -0.2931 
      8 C8         29.5761   -1.8533   -1.9732 C.3       12 UNK         0.0378 
      9 C9         30.0794   -2.5235   -3.2413 C.ar      12 UNK        -0.0802 
     10 C10        31.3377   -2.2063   -3.7585 C.ar      12 UNK        -0.0944 
     11 C11        31.8084   -2.8346   -4.9155 C.ar      12 UNK        -0.0787 
     12 C12        31.0096   -3.7905   -5.5536 C.ar      12 UNK        -0.0862 
     13 C13        29.7554   -4.1300   -5.0347 C.ar      12 UNK        -0.0733 
     14 C14        29.2926   -3.4826   -3.8845 C.ar      12 UNK        -0.0832 
     15 C15        28.9360   -5.2477   -5.6704 C.3       12 UNK         0.0240 
     16 S16        28.0119   -4.7159   -7.1468 S.3       12 UNK        -0.2522 
     17 C17        26.7110   -3.6631   -6.4165 C.3       12 UNK        -0.0967 
     18 CA         26.4584   -2.3517   -7.1985 C.3       5 UNK         0.0660 
     19 N          25.3273   -1.6047   -6.6442 N.am      5 UNK        -0.4015 
     20 C          24.6877   -0.6107   -7.2776 C.2       4 UNK         0.4946 
     21 O          24.9452   -0.2522   -8.4252 O.2       4 UNK        -0.5353 
     22 CA         23.6043    0.1401   -6.4849 C.3       4 UNK         0.0277 
     23 CB         22.2621   -0.6047   -6.5614 C.3       4 UNK        -0.1981 
     24 N          23.9719    0.3530   -5.0832 N.am      4 UNK        -0.4209 
     25 C          25.0059    1.1051   -4.6788 C.2       3 UNK         0.4942 
     26 O          25.7187    1.7535   -5.4431 O.2       3 UNK        -0.5208 
     27 CA         25.3312    1.0955   -3.1755 C.3       3 UNK         0.0250 
     28 CB         24.5743    2.2215   -2.4543 C.3       3 UNK        -0.1990 
     29 N          25.0562   -0.1836   -2.5118 N.am      3 UNK        -0.4232 
     30 C          25.6022   -1.3617   -2.8434 C.2       2 UNK         0.4993 
     31 O          26.3882   -1.5118   -3.7822 O.2       2 UNK        -0.5286 
     32 CA         25.1927   -2.5738   -1.9878 C.3       2 UNK         0.0209 
     33 CB         25.0068   -3.8359   -2.8493 C.3       2 UNK        -0.1931 
     34 N          26.1669   -2.8556   -0.9318 N.am      2 UNK        -0.4546 
     35 C          26.4420   -2.0574    0.1108 C.2       1 UNK         0.5154 
     36 O          25.8805   -0.9798    0.3140 O.2       1 UNK        -0.5181 
     37 C          27.7062   -1.4522   -7.2856 C.2       5 UNK         0.5014 
     38 O          28.3556   -1.4249   -8.3317 O.2       5 UNK        -0.5248 
     39 N          27.9808   -0.6889   -6.2168 N.am      6 UNK        -0.4434 
     40 CA         29.0792    0.2789   -6.1610 C.3       6 UNK         0.0363 
     41 CB         29.1364    0.9245   -4.7676 C.3       6 UNK        -0.1936 
     42 C          28.9969    1.3635   -7.2493 C.2       6 UNK         0.5081 
     43 O          30.0253    1.7063   -7.8354 O.2       6 UNK        -0.5248 
     44 N          27.7776    1.8608   -7.5011 N.am      7 UNK        -0.4718 
     45 CA         27.4619    2.8310   -8.5493 C.3       7 UNK         0.0273 
     46 CB         26.0884    3.4588   -8.2634 C.3       7 UNK        -0.1935 
     47 C          27.4927    2.2310   -9.9652 C.2       7 UNK         0.5018 
     48 O          27.9056    2.9272  -10.8929 O.2       7 UNK        -0.5186 
     49 N          27.0512    0.9723  -10.1189 N.am      8 UNK        -0.4240 
     50 CA         27.0974    0.2292  -11.3847 C.3       8 UNK         0.0235 
     51 CB         26.2360   -1.0398  -11.2844 C.3       8 UNK        -0.2000 
     52 C          28.5313   -0.1246  -11.8134 C.2       8 UNK         0.4941 
     53 O          28.8165   -0.1328  -13.0123 O.2       8 UNK        -0.5273 
     54 N          29.3984   -0.3972  -10.8300 N.am      9 UNK        -0.4262 
     55 CA         30.8456   -0.5232  -10.9791 C.3       9 UNK         0.0264 
     56 CB         31.3670   -1.4799   -9.8859 C.3       9 UNK        -0.1955 
     57 C          31.4919    0.8791  -10.9573 C.2       9 UNK         0.5031 
     58 O          31.1171    1.7361  -11.7600 O.2       9 UNK        -0.5390 
     59 N          32.4543    1.0988  -10.0562 N.am      10 UNK        -0.4204 
     60 CA         33.1100    2.3848   -9.8159 C.3       10 UNK         0.0237 
     61 CB         34.1646    2.6686  -10.9081 C.3       10 UNK        -0.1985 
     62 C          33.6966    2.3966   -8.3967 C.2       10 UNK         0.4970 
     63 O          34.8353    2.8289   -8.2081 O.2       10 UNK        -0.4914 
     64 N          32.9301    1.8745   -7.4311 N.am      11 UNK        -0.4285 
     65 CA         33.3863    1.6528   -6.0479 C.3       11 UNK         0.1007 
     66 C          33.0405    2.8202   -5.0806 C.2       11 UNK         0.5703 
     67 N          32.2895    3.8322   -5.5001 N.am      11 UNK        -0.7361 
     68 O          33.4720    2.8138   -3.9303 O.2       11 UNK        -0.4986 
     69 C69        32.9018    0.2919   -5.4815 C.3       12 UNK        -0.0947 
     70 S70        33.1960   -1.1176   -6.6049 S.3       12 UNK        -0.2240 
     71 C71        33.2006   -2.5174   -5.4445 C.3       12 UNK         0.0194 
     72 H72        25.8422   -6.7068    1.3647 H         1 UNK         0.0906 
     73 H73        27.5980   -6.5568    1.4588 H         1 UNK         0.0906 
     74 H74        26.6351   -6.5793    2.9370 H         1 UNK         0.0906 
     75 H75        28.2950   -4.4943    0.9079 H         1 UNK         0.3140 
     76 H76        27.2223   -2.1217    2.0776 H         1 UNK         0.1085 
     77 H77        29.5438   -2.0888    1.6645 H         1 UNK         0.0836 
     78 H78        28.8934   -0.9589    0.5232 H         1 UNK         0.0836 
     79 H79        28.5270   -1.5851   -2.0936 H         1 UNK         0.0731 
     80 H80        30.1146   -0.9223   -1.7889 H         1 UNK         0.0731 
     81 H81        31.9571   -1.4788   -3.2527 H         1 UNK         0.1312 
     82 H82        31.3751   -4.2911   -6.4398 H         1 UNK         0.1406 
     83 H83        28.3300   -3.7407   -3.4664 H         1 UNK         0.1631 
     84 H84        28.2402   -5.6742   -4.9460 H         1 UNK         0.0717 
     85 H85        29.6041   -6.0614   -5.9565 H         1 UNK         0.0717 
     86 H86        25.7939   -4.2532   -6.3810 H         1 UNK         0.0934 
     87 H87        26.9588   -3.4406   -5.3810 H         1 UNK         0.0934 
     88 H88        26.1909   -2.6293   -8.2204 H         1 UNK         0.0739 
     89 H89        25.1139   -1.7759   -5.6718 H         1 UNK         0.3093 
     90 H90        23.4781    1.1208   -6.9490 H         1 UNK         0.0818 
     91 H91        21.4661   -0.0389   -6.0768 H         1 UNK         0.0819 
     92 H92        21.9615   -0.7581   -7.5990 H         1 UNK         0.0819 
     93 H93        22.3131   -1.5864   -6.0888 H         1 UNK         0.0819 
     94 H94        23.4288   -0.1317   -4.3839 H         1 UNK         0.3041 
     95 H95        26.4006    1.2864   -3.0718 H         1 UNK         0.0784 
     96 H96        24.7828    3.1885   -2.9146 H         1 UNK         0.0793 
     97 H97        23.4946    2.0702   -2.4876 H         1 UNK         0.0793 
     98 H98        24.8722    2.2927   -1.4079 H         1 UNK         0.0793 
     99 H99        24.4719   -0.1441   -1.6879 H         1 UNK         0.3024 
    100 H100       24.2340   -2.3517   -1.5137 H         1 UNK         0.1171 
    101 H101       24.3113   -3.6529   -3.6695 H         1 UNK         0.0786 
    102 H102       24.6000   -4.6584   -2.2606 H         1 UNK         0.0786 
    103 H103       25.9459   -4.1742   -3.2866 H         1 UNK         0.0786 
    104 H104       26.6866   -3.7173   -1.0089 H         1 UNK         0.2977 
    105 H105       27.4145   -0.8002   -5.3809 H         1 UNK         0.3127 
    106 H106       29.9964   -0.2874   -6.3293 H         1 UNK         0.0770 
    107 H107       28.2302    1.4869   -4.5480 H         1 UNK         0.0814 
    108 H108       29.9689    1.6247   -4.6918 H         1 UNK         0.0814 
    109 H109       29.2651    0.1768   -3.9874 H         1 UNK         0.0814 
    110 H110       27.0078    1.5754   -6.9014 H         1 UNK         0.2983 
    111 H111       28.2138    3.6226   -8.5120 H         1 UNK         0.0947 
    112 H112       25.8327    4.2033   -9.0186 H         1 UNK         0.0806 
    113 H113       26.0761    3.9602   -7.2954 H         1 UNK         0.0806 
    114 H114       25.2963    2.7087   -8.2602 H         1 UNK         0.0806 
    115 H115       26.6497    0.4900   -9.3213 H         1 UNK         0.3000 
    116 H116       26.6707    0.8666  -12.1621 H         1 UNK         0.0850 
    117 H117       26.2567   -1.6011  -12.2194 H         1 UNK         0.0810 
    118 H118       25.1940   -0.7961  -11.0772 H         1 UNK         0.0810 
    119 H119       26.5891   -1.7049  -10.4961 H         1 UNK         0.0810 
    120 H120       29.0400   -0.4464   -9.8796 H         1 UNK         0.3040 
    121 H121       31.0706   -0.9670  -11.9509 H         1 UNK         0.0766 
    122 H122       30.8869   -2.4557   -9.9636 H         1 UNK         0.0812 
    123 H123       31.1615   -1.1017   -8.8832 H         1 UNK         0.0812 
    124 H124       32.4408   -1.6493   -9.9748 H         1 UNK         0.0812 
    125 H125       32.7096    0.3505   -9.4255 H         1 UNK         0.3205 
    126 H126       32.3554    3.1738   -9.8458 H         1 UNK         0.0754 
    127 H127       34.6467    3.6338  -10.7477 H         1 UNK         0.0769 
    128 H128       33.7160    2.6986  -11.9009 H         1 UNK         0.0769 
    129 H129       34.9460    1.9079  -10.9172 H         1 UNK         0.0769 
    130 H130       31.9630    1.6337   -7.6332 H         1 UNK         0.2981 
    131 H131       34.4767    1.6029   -6.0515 H         1 UNK         0.0541 
    132 H132       31.9318    3.8459   -6.4416 H         1 UNK         0.3459 
    133 H133       32.0789    4.5869   -4.8667 H         1 UNK         0.3459 
    134 H134       31.8411    0.3269   -5.2485 H         1 UNK         0.0612 
    135 H135       33.4098    0.0892   -4.5371 H         1 UNK         0.0612 
    136 H136       33.6077   -3.3900   -5.9575 H         1 UNK         0.0624 
    137 H137       33.8830   -2.3082   -4.6194 H         1 UNK         0.0624 
@<TRIPOS>BOND
     1    1    2 1    
     2    1   72 1    
     3    1   73 1    
     4    1   74 1    
     5    2    3 2    
     6    2    4 am   BACKBONE|DICT|INTERRES
     7    4    5 1    
     8    4   75 1    
     9    5    6 1    
    10    5   35 1    
    11    5   76 1    
    12    6    7 1    
    13    6   77 1    
    14    6   78 1    
    15    7    8 1    
    16    8    9 1    
    17    8   79 1    
    18    8   80 1    
    19    9   10 ar   
    20    9   14 ar   
    21   10   11 ar   
    22   10   81 1    
    23   11   12 ar   
    24   11   71 1    
    25   12   13 ar   
    26   12   82 1    
    27   13   14 ar   
    28   13   15 1    
    29   14   83 1    
    30   15   16 1    
    31   15   84 1    
    32   15   85 1    
    33   16   17 1    
    34   17   18 1    
    35   17   86 1    
    36   17   87 1    
    37   18   19 1    
    38   18   37 1    
    39   18   88 1    
    40   19   20 am   BACKBONE|DICT|INTERRES
    41   19   89 1    
    42   20   21 2    
    43   20   22 1    
    44   22   23 1    
    45   22   24 1    
    46   22   90 1    
    47   23   91 1    
    48   23   92 1    
    49   23   93 1    
    50   24   25 am   BACKBONE|DICT|INTERRES
    51   24   94 1    
    52   25   26 2    
    53   25   27 1    
    54   27   28 1    
    55   27   29 1    
    56   27   95 1    
    57   28   96 1    
    58   28   97 1    
    59   28   98 1    
    60   29   30 am   BACKBONE|DICT|INTERRES
    61   29   99 1    
    62   30   31 2    
    63   30   32 1    
    64   32   33 1    
    65   32   34 1    
    66   32  100 1    
    67   33  101 1    
    68   33  102 1    
    69   33  103 1    
    70   34   35 am   BACKBONE|DICT|INTERRES
    71   34  104 1    
    72   35   36 2    
    73   37   38 2    
    74   37   39 am   BACKBONE|DICT|INTERRES
    75   39   40 1    
    76   39  105 1    
    77   40   41 1    
    78   40   42 1    
    79   40  106 1    
    80   41  107 1    
    81   41  108 1    
    82   41  109 1    
    83   42   43 2    
    84   42   44 am   BACKBONE|DICT|INTERRES
    85   44   45 1    
    86   44  110 1    
    87   45   46 1    
    88   45   47 1    
    89   45  111 1    
    90   46  112 1    
    91   46  113 1    
    92   46  114 1    
    93   47   48 2    
    94   47   49 am   BACKBONE|DICT|INTERRES
    95   49   50 1    
    96   49  115 1    
    97   50   51 1    
    98   50   52 1    
    99   50  116 1    
   100   51  117 1    
   101   51  118 1    
   102   51  119 1    
   103   52   53 2    
   104   52   54 am   BACKBONE|DICT|INTERRES
   105   54   55 1    
   106   54  120 1    
   107   55   56 1    
   108   55   57 1    
   109   55  121 1    
   110   56  122 1    
   111   56  123 1    
   112   56  124 1    
   113   57   58 2    
   114   57   59 am   BACKBONE|DICT|INTERRES
   115   59   60 1    
   116   59  125 1    
   117   60   61 1    
   118   60   62 1    
   119   60  126 1    
   120   61  127 1    
   121   61  128 1    
   122   61  129 1    
   123   62   63 2    
   124   62   64 am   BACKBONE|DICT|INTERRES
   125   64   65 1    
   126   64  130 1    
   127   65   66 1    
   128   65   69 1    
   129   65  131 1    
   130   66   67 am   BACKBONE|DICT|INTERRES
   131   66   68 2    
   132   67  132 1    
   133   67  133 1    
   134   69   70 1    
   135   69  134 1    
   136   69  135 1    
   137   70   71 1    
   138   71  136 1    
   139   71  137 1    
@<TRIPOS>SUBSTRUCTURE
     1 UNK         1 GROUP             0       ****    0 ROOT    
