@<TRIPOS>MOLECULE
3R137
137   139    1
SMALL
USER_CHARGES


@<TRIPOS>ATOM
      1 CA         28.3053   -1.1918    2.3908 C.3       0 UNK        -0.2020 
      2 C          28.1378   -2.1777    1.2442 C.2       0 UNK         0.4855 
      3 O          27.6272   -3.2771    1.4578 O.2       0 UNK        -0.5197 
      4 N          28.5529   -1.7816    0.0315 N.am      1 UNK        -0.4892 
      5 CA         28.5405   -2.5776   -1.2117 C.3       1 UNK         0.0835 
      6 C6         29.4150   -3.8636   -1.1377 C.3       12 UNK        -0.0855 
      7 S7         31.1376   -3.5112   -0.6350 S.3       12 UNK        -0.2931 
      8 C8         32.0652   -3.8074   -2.1751 C.3       12 UNK         0.0378 
      9 C9         31.6284   -2.8863   -3.3061 C.ar      12 UNK        -0.0802 
     10 C10        31.8557   -1.5089   -3.2243 C.ar      12 UNK        -0.0944 
     11 C11        31.4685   -0.6628   -4.2681 C.ar      12 UNK        -0.0787 
     12 C12        30.8298   -1.2029   -5.3888 C.ar      12 UNK        -0.0862 
     13 C13        30.6268   -2.5812   -5.4971 C.ar      12 UNK        -0.0733 
     14 C14        31.0248   -3.4172   -4.4501 C.ar      12 UNK        -0.0832 
     15 C15        30.0194   -3.1680   -6.7644 C.3       12 UNK         0.0240 
     16 S16        28.4966   -4.1161   -6.4573 S.3       12 UNK        -0.2522 
     17 C17        27.4170   -2.8727   -5.6788 C.3       12 UNK        -0.0967 
     18 CA         26.7805   -1.9002   -6.7051 C.3       5 UNK         0.0660 
     19 N          25.3304   -1.8077   -6.5445 N.am      5 UNK        -0.4015 
     20 C          24.4888   -1.3752   -7.4920 C.2       4 UNK         0.4946 
     21 O          24.8431   -1.0343   -8.6209 O.2       4 UNK        -0.5353 
     22 CA         23.0043   -1.2802   -7.1000 C.3       4 UNK         0.0277 
     23 CB         22.2990   -2.6278   -7.3209 C.3       4 UNK        -0.1981 
     24 N          22.8074   -0.8421   -5.7141 N.am      4 UNK        -0.4209 
     25 C          23.1341    0.3772   -5.2642 C.2       3 UNK         0.4942 
     26 O          23.6126    1.2603   -5.9731 O.2       3 UNK        -0.5208 
     27 CA         22.9296    0.6531   -3.7673 C.3       3 UNK         0.0250 
     28 CB         21.4751    1.0673   -3.4919 C.3       3 UNK        -0.1990 
     29 N          23.3035   -0.4516   -2.8764 N.am      3 UNK        -0.4232 
     30 C          24.5062   -1.0419   -2.8178 C.2       2 UNK         0.4993 
     31 O          25.4171   -0.8332   -3.6236 O.2       2 UNK        -0.5286 
     32 CA         24.7080   -2.0167   -1.6476 C.3       2 UNK         0.0209 
     33 CB         24.0594   -3.3891   -1.9258 C.3       2 UNK        -0.1931 
     34 N          26.1212   -2.1070   -1.2499 N.am      2 UNK        -0.4546 
     35 C          27.1146   -2.8601   -1.7496 C.2       1 UNK         0.5154 
     36 O          26.9562   -3.7354   -2.6001 O.2       1 UNK        -0.5181 
     37 C          27.4208   -0.5015   -6.6498 C.2       5 UNK         0.5014 
     38 O          28.2847   -0.1972   -7.4722 O.2       5 UNK        -0.5248 
     39 N          26.9586    0.3440   -5.7173 N.am      6 UNK        -0.4434 
     40 CA         27.3634    1.7468   -5.5967 C.3       6 UNK         0.0363 
     41 CB         26.7482    2.3526   -4.3265 C.3       6 UNK        -0.1936 
     42 C          27.0040    2.5881   -6.8360 C.2       6 UNK         0.5081 
     43 O          27.7839    3.4615   -7.2124 O.2       6 UNK        -0.5248 
     44 N          25.8555    2.2950   -7.4642 N.am      7 UNK        -0.4718 
     45 CA         25.4276    2.8821   -8.7365 C.3       7 UNK         0.0273 
     46 CB         23.9468    2.5564   -8.9878 C.3       7 UNK        -0.1935 
     47 C          26.2923    2.4302   -9.9264 C.2       7 UNK         0.5018 
     48 O          26.5652    3.2457  -10.8082 O.2       7 UNK        -0.5186 
     49 N          26.7183    1.1569   -9.9299 N.am      8 UNK        -0.4240 
     50 CA         27.6705    0.6090  -10.9035 C.3       8 UNK         0.0235 
     51 CB         27.6892   -0.9261  -10.8148 C.3       8 UNK        -0.2000 
     52 C          29.0848    1.1911  -10.7243 C.2       8 UNK         0.4941 
     53 O          29.7568    1.4603  -11.7203 O.2       8 UNK        -0.5273 
     54 N          29.4828    1.4006   -9.4604 N.am      9 UNK        -0.4262 
     55 CA         30.6896    2.0944   -8.9982 C.3       9 UNK         0.0264 
     56 CB         30.6443    3.5865   -9.3931 C.3       9 UNK        -0.1955 
     57 C          32.0052    1.4077   -9.4112 C.2       9 UNK         0.5031 
     58 O          32.9910    2.0934   -9.6909 O.2       9 UNK        -0.5390 
     59 N          32.0052    0.0668   -9.4331 N.am      10 UNK        -0.4204 
     60 CA         33.1946   -0.7544   -9.6771 C.3       10 UNK         0.0237 
     61 CB         32.7764   -2.2061   -9.9732 C.3       10 UNK        -0.1985 
     62 C          34.1780   -0.6697   -8.4969 C.2       10 UNK         0.4970 
     63 O          35.3046   -0.2049   -8.6719 O.2       10 UNK        -0.4914 
     64 N          33.7021   -1.0929   -7.3186 N.am      11 UNK        -0.4285 
     65 CA         34.3521   -0.9682   -6.0019 C.3       11 UNK         0.1007 
     66 C          35.7338   -1.6754   -5.8553 C.2       11 UNK         0.5703 
     67 N          36.0552   -2.6637   -6.6817 N.am      11 UNK        -0.7361 
     68 O          36.5144   -1.3521   -4.9626 O.2       11 UNK        -0.4986 
     69 C69        34.3463    0.4925   -5.4516 C.3       12 UNK        -0.0947 
     70 S70        32.7587    1.3854   -5.6466 S.3       12 UNK        -0.2240 
     71 C71        31.7848    0.8257   -4.2078 C.3       12 UNK         0.0194 
     72 H72        28.9421   -1.6220    3.1633 H         1 UNK         0.0906 
     73 H73        27.3368   -0.9643    2.8356 H         1 UNK         0.0906 
     74 H74        28.7568   -0.2554    2.0635 H         1 UNK         0.0906 
     75 H75        28.9649   -0.8630   -0.0624 H         1 UNK         0.3140 
     76 H76        28.9915   -1.9369   -1.9719 H         1 UNK         0.1085 
     77 H77        28.9901   -4.5761   -0.4293 H         1 UNK         0.0836 
     78 H78        29.4270   -4.3777   -2.1004 H         1 UNK         0.0836 
     79 H79        33.1276   -3.6530   -1.9815 H         1 UNK         0.0731 
     80 H80        31.9564   -4.8555   -2.4589 H         1 UNK         0.0731 
     81 H81        32.3471   -1.1016   -2.3511 H         1 UNK         0.1312 
     82 H82        30.5341   -0.5470   -6.1959 H         1 UNK         0.1406 
     83 H83        30.8649   -4.4840   -4.5322 H         1 UNK         0.1631 
     84 H84        30.7510   -3.8306   -7.2285 H         1 UNK         0.0717 
     85 H85        29.8094   -2.3893   -7.4982 H         1 UNK         0.0717 
     86 H86        26.6393   -3.4414   -5.1673 H         1 UNK         0.0934 
     87 H87        27.9521   -2.3580   -4.8778 H         1 UNK         0.0934 
     88 H88        26.9584   -2.2853   -7.7118 H         1 UNK         0.0739 
     89 H89        24.9685   -1.9919   -5.6193 H         1 UNK         0.3093 
     90 H90        22.5392   -0.5403   -7.7553 H         1 UNK         0.0818 
     91 H91        22.4177   -2.9643   -8.3519 H         1 UNK         0.0819 
     92 H92        22.7021   -3.4088   -6.6750 H         1 UNK         0.0819 
     93 H93        21.2285   -2.5516   -7.1290 H         1 UNK         0.0819 
     94 H94        22.4136   -1.5085   -5.0656 H         1 UNK         0.3041 
     95 H95        23.5708    1.4977   -3.5083 H         1 UNK         0.0784 
     96 H96        21.1784    1.9001   -4.1315 H         1 UNK         0.0793 
     97 H97        20.7780    0.2493   -3.6781 H         1 UNK         0.0793 
     98 H98        21.3429    1.3935   -2.4600 H         1 UNK         0.0793 
     99 H99        22.6129   -0.7085   -2.1853 H         1 UNK         0.3024 
    100 H100       24.2021   -1.5870   -0.7811 H         1 UNK         0.1171 
    101 H101       22.9748   -3.3003   -1.9973 H         1 UNK         0.0786 
    102 H102       24.4046   -3.8230   -2.8648 H         1 UNK         0.0786 
    103 H103       24.2729   -4.0997   -1.1273 H         1 UNK         0.0786 
    104 H104       26.4044   -1.4273   -0.5581 H         1 UNK         0.2977 
    105 H105       26.2864   -0.0024   -5.0344 H         1 UNK         0.3127 
    106 H106       28.4504    1.7645   -5.4915 H         1 UNK         0.0770 
    107 H107       25.6599    2.3752   -4.3796 H         1 UNK         0.0814 
    108 H108       27.0890    3.3783   -4.1805 H         1 UNK         0.0814 
    109 H109       27.0295    1.7857   -3.4387 H         1 UNK         0.0814 
    110 H110       25.2133    1.6414   -7.0245 H         1 UNK         0.2983 
    111 H111       25.5266    3.9667   -8.6535 H         1 UNK         0.0947 
    112 H112       23.7740    1.4816   -9.0489 H         1 UNK         0.0806 
    113 H113       23.6029    2.9971   -9.9244 H         1 UNK         0.0806 
    114 H114       23.3144    2.9514   -8.1925 H         1 UNK         0.0806 
    115 H115       26.4060    0.5380   -9.1917 H         1 UNK         0.3000 
    116 H116       27.3234    0.8848  -11.9017 H         1 UNK         0.0850 
    117 H117       28.3448   -1.3505  -11.5763 H         1 UNK         0.0810 
    118 H118       26.6946   -1.3438  -10.9730 H         1 UNK         0.0810 
    119 H119       28.0469   -1.2771   -9.8473 H         1 UNK         0.0810 
    120 H120       28.8830    1.0387   -8.7205 H         1 UNK         0.3040 
    121 H121       30.6562    2.0466   -7.9087 H         1 UNK         0.0766 
    122 H122       30.7402    3.7223  -10.4707 H         1 UNK         0.0812 
    123 H123       31.4554    4.1415   -8.9204 H         1 UNK         0.0812 
    124 H124       29.7099    4.0515   -9.0791 H         1 UNK         0.0812 
    125 H125       31.1430   -0.4108   -9.2165 H         1 UNK         0.3205 
    126 H126       33.7028   -0.3650  -10.5621 H         1 UNK         0.0754 
    127 H127       33.6510   -2.8367  -10.1399 H         1 UNK         0.0769 
    128 H128       32.1649   -2.2617  -10.8742 H         1 UNK         0.0769 
    129 H129       32.2048   -2.6491   -9.1573 H         1 UNK         0.0769 
    130 H130       32.7687   -1.4708   -7.2913 H         1 UNK         0.2981 
    131 H131       33.7247   -1.5576   -5.3380 H         1 UNK         0.0541 
    132 H132       36.9451   -3.1247   -6.5772 H         1 UNK         0.3459 
    133 H133       35.4240   -2.9423   -7.4152 H         1 UNK         0.3459 
    134 H134       35.1101    1.0797   -5.9639 H         1 UNK         0.0612 
    135 H135       34.6160    0.5019   -4.3943 H         1 UNK         0.0612 
    136 H136       30.8478    1.3833   -4.1793 H         1 UNK         0.0624 
    137 H137       32.3254    1.0773   -3.2941 H         1 UNK         0.0624 
@<TRIPOS>BOND
     1    1    2 1    
     2    1   72 1    
     3    1   73 1    
     4    1   74 1    
     5    2    3 2    
     6    2    4 am   BACKBONE|DICT|INTERRES
     7    4    5 1    
     8    4   75 1    
     9    5    6 1    
    10    5   35 1    
    11    5   76 1    
    12    6    7 1    
    13    6   77 1    
    14    6   78 1    
    15    7    8 1    
    16    8    9 1    
    17    8   79 1    
    18    8   80 1    
    19    9   10 ar   
    20    9   14 ar   
    21   10   11 ar   
    22   10   81 1    
    23   11   12 ar   
    24   11   71 1    
    25   12   13 ar   
    26   12   82 1    
    27   13   14 ar   
    28   13   15 1    
    29   14   83 1    
    30   15   16 1    
    31   15   84 1    
    32   15   85 1    
    33   16   17 1    
    34   17   18 1    
    35   17   86 1    
    36   17   87 1    
    37   18   19 1    
    38   18   37 1    
    39   18   88 1    
    40   19   20 am   BACKBONE|DICT|INTERRES
    41   19   89 1    
    42   20   21 2    
    43   20   22 1    
    44   22   23 1    
    45   22   24 1    
    46   22   90 1    
    47   23   91 1    
    48   23   92 1    
    49   23   93 1    
    50   24   25 am   BACKBONE|DICT|INTERRES
    51   24   94 1    
    52   25   26 2    
    53   25   27 1    
    54   27   28 1    
    55   27   29 1    
    56   27   95 1    
    57   28   96 1    
    58   28   97 1    
    59   28   98 1    
    60   29   30 am   BACKBONE|DICT|INTERRES
    61   29   99 1    
    62   30   31 2    
    63   30   32 1    
    64   32   33 1    
    65   32   34 1    
    66   32  100 1    
    67   33  101 1    
    68   33  102 1    
    69   33  103 1    
    70   34   35 am   BACKBONE|DICT|INTERRES
    71   34  104 1    
    72   35   36 2    
    73   37   38 2    
    74   37   39 am   BACKBONE|DICT|INTERRES
    75   39   40 1    
    76   39  105 1    
    77   40   41 1    
    78   40   42 1    
    79   40  106 1    
    80   41  107 1    
    81   41  108 1    
    82   41  109 1    
    83   42   43 2    
    84   42   44 am   BACKBONE|DICT|INTERRES
    85   44   45 1    
    86   44  110 1    
    87   45   46 1    
    88   45   47 1    
    89   45  111 1    
    90   46  112 1    
    91   46  113 1    
    92   46  114 1    
    93   47   48 2    
    94   47   49 am   BACKBONE|DICT|INTERRES
    95   49   50 1    
    96   49  115 1    
    97   50   51 1    
    98   50   52 1    
    99   50  116 1    
   100   51  117 1    
   101   51  118 1    
   102   51  119 1    
   103   52   53 2    
   104   52   54 am   BACKBONE|DICT|INTERRES
   105   54   55 1    
   106   54  120 1    
   107   55   56 1    
   108   55   57 1    
   109   55  121 1    
   110   56  122 1    
   111   56  123 1    
   112   56  124 1    
   113   57   58 2    
   114   57   59 am   BACKBONE|DICT|INTERRES
   115   59   60 1    
   116   59  125 1    
   117   60   61 1    
   118   60   62 1    
   119   60  126 1    
   120   61  127 1    
   121   61  128 1    
   122   61  129 1    
   123   62   63 2    
   124   62   64 am   BACKBONE|DICT|INTERRES
   125   64   65 1    
   126   64  130 1    
   127   65   66 1    
   128   65   69 1    
   129   65  131 1    
   130   66   67 am   BACKBONE|DICT|INTERRES
   131   66   68 2    
   132   67  132 1    
   133   67  133 1    
   134   69   70 1    
   135   69  134 1    
   136   69  135 1    
   137   70   71 1    
   138   71  136 1    
   139   71  137 1    
@<TRIPOS>SUBSTRUCTURE
     1 UNK         1 GROUP             0       ****    0 ROOT    
