@<TRIPOS>MOLECULE
3R137
137   139    1
SMALL
USER_CHARGES


@<TRIPOS>ATOM
      1 CA         28.5571    1.8188    3.0071 C.3       0 UNK        -0.2020 
      2 C          28.4147    1.2554    1.6009 C.2       0 UNK         0.4855 
      3 O          27.7553    1.8679    0.7603 O.2       0 UNK        -0.5197 
      4 N          29.0338    0.0979    1.3362 N.am      1 UNK        -0.4892 
      5 CA         28.9438   -0.6211    0.0611 C.3       1 UNK         0.0835 
      6 C6         30.1107   -1.6281   -0.0913 C.3       12 UNK        -0.0855 
      7 S7         30.4619   -1.9909   -1.8414 S.3       12 UNK        -0.2931 
      8 C8         30.2847   -3.8052   -1.8883 C.3       12 UNK         0.0378 
      9 C9         30.4237   -4.3149   -3.3151 C.ar      12 UNK        -0.0802 
     10 C10        31.6087   -4.0888   -4.0181 C.ar      12 UNK        -0.0944 
     11 C11        31.7071   -4.4173   -5.3713 C.ar      12 UNK        -0.0787 
     12 C12        30.6432   -5.0687   -6.0018 C.ar      12 UNK        -0.0862 
     13 C13        29.4530   -5.3096   -5.3061 C.ar      12 UNK        -0.0733 
     14 C14        29.3532   -4.9411   -3.9598 C.ar      12 UNK        -0.0832 
     15 C15        28.2328   -5.8573   -6.0379 C.3       12 UNK         0.0240 
     16 S16        27.4920   -4.6584   -7.2133 S.3       12 UNK        -0.2522 
     17 C17        27.9937   -3.0389   -6.5376 C.3       12 UNK        -0.0967 
     18 CA         27.4481   -1.8370   -7.3358 C.3       5 UNK         0.0660 
     19 N          25.9911   -1.6987   -7.1952 N.am      5 UNK        -0.4015 
     20 C          25.2169   -0.6600   -7.5509 C.2       4 UNK         0.4946 
     21 O          25.6471    0.4205   -7.9553 O.2       4 UNK        -0.5353 
     22 CA         23.6910   -0.8468   -7.4592 C.3       4 UNK         0.0277 
     23 CB         23.0935   -0.9675   -8.8700 C.3       4 UNK        -0.1981 
     24 N          23.2958   -2.0241   -6.6782 N.am      4 UNK        -0.4209 
     25 C          23.2219   -2.1308   -5.3438 C.2       3 UNK         0.4942 
     26 O          22.9254   -3.1974   -4.8045 O.2       3 UNK        -0.5208 
     27 CA         23.4608   -0.8922   -4.4552 C.3       3 UNK         0.0250 
     28 CB         22.1299   -0.1834   -4.1539 C.3       3 UNK        -0.1990 
     29 N          24.0783   -1.3010   -3.1964 N.am      3 UNK        -0.4232 
     30 C          25.3938   -1.4694   -3.0321 C.2       2 UNK         0.4993 
     31 O          26.2396   -1.2000   -3.8910 O.2       2 UNK        -0.5286 
     32 CA         25.8361   -2.0656   -1.6946 C.3       2 UNK         0.0209 
     33 CB         25.9440   -3.5971   -1.7923 C.3       2 UNK        -0.1931 
     34 N          27.1310   -1.4975   -1.3391 N.am      2 UNK        -0.4546 
     35 C          27.5684   -1.3067   -0.0907 C.2       1 UNK         0.5154 
     36 O          26.9438   -1.6645    0.9127 O.2       1 UNK        -0.5181 
     37 C          28.2706   -0.5922   -6.9594 C.2       5 UNK         0.5014 
     38 O          29.1803   -0.2305   -7.7094 O.2       5 UNK        -0.5248 
     39 N          27.9371    0.0431   -5.8275 N.am      6 UNK        -0.4434 
     40 CA         28.6046    1.2441   -5.3208 C.3       6 UNK         0.0363 
     41 CB         27.9334    1.6947   -4.0145 C.3       6 UNK        -0.1936 
     42 C          28.6672    2.4071   -6.3296 C.2       6 UNK         0.5081 
     43 O          29.6570    3.1401   -6.3306 O.2       6 UNK        -0.5248 
     44 N          27.6402    2.5223   -7.1828 N.am      7 UNK        -0.4718 
     45 CA         27.5626    3.4931   -8.2717 C.3       7 UNK         0.0273 
     46 CB         26.1805    4.1669   -8.2492 C.3       7 UNK        -0.1935 
     47 C          27.8140    2.8316   -9.6351 C.2       7 UNK         0.5018 
     48 O          28.5942    3.3653  -10.4225 O.2       7 UNK        -0.5186 
     49 N          27.1517    1.6954   -9.9006 N.am      8 UNK        -0.4240 
     50 CA         27.1273    1.0272  -11.2069 C.3       8 UNK         0.0235 
     51 CB         26.0080   -0.0256  -11.2319 C.3       8 UNK        -0.2000 
     52 C          28.4660    0.3947  -11.6117 C.2       8 UNK         0.4941 
     53 O          28.8504    0.4985  -12.7770 O.2       8 UNK        -0.5273 
     54 N          29.1531   -0.2331  -10.6494 N.am      9 UNK        -0.4262 
     55 CA         30.5003   -0.7856  -10.8198 C.3       9 UNK         0.0264 
     56 CB         30.5663   -2.1635  -10.1369 C.3       9 UNK        -0.1955 
     57 C          31.5759    0.1684  -10.2665 C.2       9 UNK         0.5031 
     58 O          32.7637   -0.1342  -10.3864 O.2       9 UNK        -0.5390 
     59 N          31.1416    1.2934   -9.6752 N.am      10 UNK        -0.4204 
     60 CA         31.9298    2.3345   -9.0104 C.3       10 UNK         0.0237 
     61 CB         32.8160    3.0862  -10.0265 C.3       10 UNK        -0.1985 
     62 C          32.7153    1.8140   -7.7908 C.2       10 UNK         0.4970 
     63 O          33.7940    2.3330   -7.4963 O.2       10 UNK        -0.4914 
     64 N          32.1675    0.8035   -7.1010 N.am      11 UNK        -0.4285 
     65 CA         32.7831    0.1881   -5.9149 C.3       11 UNK         0.1007 
     66 C          32.7228    1.0602   -4.6243 C.2       11 UNK         0.5703 
     67 N          31.9944    2.1712   -4.5892 N.am      11 UNK        -0.7361 
     68 O          33.3731    0.7310   -3.6355 O.2       11 UNK        -0.4986 
     69 C69        32.2450   -1.2436   -5.6611 C.3       12 UNK        -0.0947 
     70 S70        32.5939   -2.3972   -7.0371 S.3       12 UNK        -0.2240 
     71 C71        32.9222   -3.9708   -6.1691 C.3       12 UNK         0.0194 
     72 H72        29.1782    1.1855    3.6403 H         1 UNK         0.0906 
     73 H73        29.0100    2.8093    2.9706 H         1 UNK         0.0906 
     74 H74        27.5773    1.9092    3.4755 H         1 UNK         0.0906 
     75 H75        29.5279   -0.3801    2.0764 H         1 UNK         0.3140 
     76 H76        29.0304    0.1290   -0.7294 H         1 UNK         0.1085 
     77 H77        31.0272   -1.2052    0.3241 H         1 UNK         0.0836 
     78 H78        29.9263   -2.5461    0.4707 H         1 UNK         0.0836 
     79 H79        31.0487   -4.2653   -1.2599 H         1 UNK         0.0731 
     80 H80        29.3164   -4.0839   -1.4689 H         1 UNK         0.0731 
     81 H81        32.4264   -3.5801   -3.5264 H         1 UNK         0.1312 
     82 H82        30.7056   -5.3044   -7.0556 H         1 UNK         0.1406 
     83 H83        28.4256   -5.1002   -3.4288 H         1 UNK         0.1631 
     84 H84        27.4652   -6.1579   -5.3232 H         1 UNK         0.0717 
     85 H85        28.5101   -6.7614   -6.5817 H         1 UNK         0.0717 
     86 H86        29.0846   -3.0082   -6.5486 H         1 UNK         0.0934 
     87 H87        27.6945   -2.9765   -5.4889 H         1 UNK         0.0934 
     88 H88        27.6348   -2.0188   -8.3959 H         1 UNK         0.0739 
     89 H89        25.5225   -2.5288   -6.8636 H         1 UNK         0.3093 
     90 H90        23.2692    0.0531   -7.0089 H         1 UNK         0.0818 
     91 H91        22.0106   -1.0889   -8.8345 H         1 UNK         0.0819 
     92 H92        23.2933   -0.0686   -9.4544 H         1 UNK         0.0819 
     93 H93        23.5094   -1.8137   -9.4187 H         1 UNK         0.0819 
     94 H94        23.0844   -2.8499   -7.2201 H         1 UNK         0.3041 
     95 H95        24.1282   -0.1808   -4.9418 H         1 UNK         0.0784 
     96 H96        21.6528    0.1620   -5.0719 H         1 UNK         0.0793 
     97 H97        21.4235   -0.8447   -3.6502 H         1 UNK         0.0793 
     98 H98        22.2809    0.6907   -3.5201 H         1 UNK         0.0793 
     99 H99        23.4477   -1.6060   -2.4688 H         1 UNK         0.3024 
    100 H100       25.1014   -1.7985   -0.9310 H         1 UNK         0.1171 
    101 H101       26.2748   -4.0357   -0.8507 H         1 UNK         0.0786 
    102 H102       26.6472   -3.8963   -2.5689 H         1 UNK         0.0786 
    103 H103       24.9789   -4.0424   -2.0377 H         1 UNK         0.0786 
    104 H104       27.6848   -1.1874   -2.1281 H         1 UNK         0.2977 
    105 H105       27.2083   -0.3586   -5.2389 H         1 UNK         0.3127 
    106 H106       29.6298    0.9540   -5.0916 H         1 UNK         0.0770 
    107 H107       26.8772    1.9225   -4.1626 H         1 UNK         0.0814 
    108 H108       28.4113    2.5916   -3.6178 H         1 UNK         0.0814 
    109 H109       28.0063    0.9255   -3.2462 H         1 UNK         0.0814 
    110 H110       26.9048    1.8238   -7.1456 H         1 UNK         0.2983 
    111 H111       28.3174    4.2717   -8.1384 H         1 UNK         0.0947 
    112 H112       26.0849    4.8906   -9.0600 H         1 UNK         0.0806 
    113 H113       26.0204    4.7051   -7.3149 H         1 UNK         0.0806 
    114 H114       25.3723    3.4424   -8.3594 H         1 UNK         0.0806 
    115 H115       26.5477    1.2997   -9.1801 H         1 UNK         0.3000 
    116 H116       26.8885    1.7854  -11.9562 H         1 UNK         0.0850 
    117 H117       25.9504   -0.5116  -12.2069 H         1 UNK         0.0810 
    118 H118       25.0364    0.4293  -11.0415 H         1 UNK         0.0810 
    119 H119       26.1680   -0.8064  -10.4880 H         1 UNK         0.0810 
    120 H120       28.7890   -0.2462   -9.7022 H         1 UNK         0.3040 
    121 H121       30.7188   -0.9299  -11.8799 H         1 UNK         0.0766 
    122 H122       31.5505   -2.6162  -10.2639 H         1 UNK         0.0812 
    123 H123       30.3781   -2.0987   -9.0659 H         1 UNK         0.0812 
    124 H124       29.8363   -2.8520  -10.5624 H         1 UNK         0.0812 
    125 H125       30.1416    1.4314   -9.6471 H         1 UNK         0.3205 
    126 H126       31.2073    3.0507   -8.6165 H         1 UNK         0.0754 
    127 H127       33.2929    3.9521   -9.5656 H         1 UNK         0.0769 
    128 H128       32.2281    3.4526  -10.8682 H         1 UNK         0.0769 
    129 H129       33.6087    2.4500  -10.4213 H         1 UNK         0.0769 
    130 H130       31.2758    0.4243   -7.3962 H         1 UNK         0.2981 
    131 H131       33.8482    0.0841   -6.1307 H         1 UNK         0.0541 
    132 H132       31.4442    2.4678   -5.3849 H         1 UNK         0.3459 
    133 H133       31.9898    2.7220   -3.7462 H         1 UNK         0.3459 
    134 H134       31.1685   -1.2285   -5.4808 H         1 UNK         0.0612 
    135 H135       32.7036   -1.6467   -4.7582 H         1 UNK         0.0612 
    136 H136       33.1846   -4.7341   -6.9029 H         1 UNK         0.0624 
    137 H137       33.7911   -3.8535   -5.5197 H         1 UNK         0.0624 
@<TRIPOS>BOND
     1    1    2 1    
     2    1   72 1    
     3    1   73 1    
     4    1   74 1    
     5    2    3 2    
     6    2    4 am   BACKBONE|DICT|INTERRES
     7    4    5 1    
     8    4   75 1    
     9    5    6 1    
    10    5   35 1    
    11    5   76 1    
    12    6    7 1    
    13    6   77 1    
    14    6   78 1    
    15    7    8 1    
    16    8    9 1    
    17    8   79 1    
    18    8   80 1    
    19    9   10 ar   
    20    9   14 ar   
    21   10   11 ar   
    22   10   81 1    
    23   11   12 ar   
    24   11   71 1    
    25   12   13 ar   
    26   12   82 1    
    27   13   14 ar   
    28   13   15 1    
    29   14   83 1    
    30   15   16 1    
    31   15   84 1    
    32   15   85 1    
    33   16   17 1    
    34   17   18 1    
    35   17   86 1    
    36   17   87 1    
    37   18   19 1    
    38   18   37 1    
    39   18   88 1    
    40   19   20 am   BACKBONE|DICT|INTERRES
    41   19   89 1    
    42   20   21 2    
    43   20   22 1    
    44   22   23 1    
    45   22   24 1    
    46   22   90 1    
    47   23   91 1    
    48   23   92 1    
    49   23   93 1    
    50   24   25 am   BACKBONE|DICT|INTERRES
    51   24   94 1    
    52   25   26 2    
    53   25   27 1    
    54   27   28 1    
    55   27   29 1    
    56   27   95 1    
    57   28   96 1    
    58   28   97 1    
    59   28   98 1    
    60   29   30 am   BACKBONE|DICT|INTERRES
    61   29   99 1    
    62   30   31 2    
    63   30   32 1    
    64   32   33 1    
    65   32   34 1    
    66   32  100 1    
    67   33  101 1    
    68   33  102 1    
    69   33  103 1    
    70   34   35 am   BACKBONE|DICT|INTERRES
    71   34  104 1    
    72   35   36 2    
    73   37   38 2    
    74   37   39 am   BACKBONE|DICT|INTERRES
    75   39   40 1    
    76   39  105 1    
    77   40   41 1    
    78   40   42 1    
    79   40  106 1    
    80   41  107 1    
    81   41  108 1    
    82   41  109 1    
    83   42   43 2    
    84   42   44 am   BACKBONE|DICT|INTERRES
    85   44   45 1    
    86   44  110 1    
    87   45   46 1    
    88   45   47 1    
    89   45  111 1    
    90   46  112 1    
    91   46  113 1    
    92   46  114 1    
    93   47   48 2    
    94   47   49 am   BACKBONE|DICT|INTERRES
    95   49   50 1    
    96   49  115 1    
    97   50   51 1    
    98   50   52 1    
    99   50  116 1    
   100   51  117 1    
   101   51  118 1    
   102   51  119 1    
   103   52   53 2    
   104   52   54 am   BACKBONE|DICT|INTERRES
   105   54   55 1    
   106   54  120 1    
   107   55   56 1    
   108   55   57 1    
   109   55  121 1    
   110   56  122 1    
   111   56  123 1    
   112   56  124 1    
   113   57   58 2    
   114   57   59 am   BACKBONE|DICT|INTERRES
   115   59   60 1    
   116   59  125 1    
   117   60   61 1    
   118   60   62 1    
   119   60  126 1    
   120   61  127 1    
   121   61  128 1    
   122   61  129 1    
   123   62   63 2    
   124   62   64 am   BACKBONE|DICT|INTERRES
   125   64   65 1    
   126   64  130 1    
   127   65   66 1    
   128   65   69 1    
   129   65  131 1    
   130   66   67 am   BACKBONE|DICT|INTERRES
   131   66   68 2    
   132   67  132 1    
   133   67  133 1    
   134   69   70 1    
   135   69  134 1    
   136   69  135 1    
   137   70   71 1    
   138   71  136 1    
   139   71  137 1    
@<TRIPOS>SUBSTRUCTURE
     1 UNK         1 GROUP             0       ****    0 ROOT    
