@<TRIPOS>MOLECULE
3R137
137   139    1
SMALL
USER_CHARGES


@<TRIPOS>ATOM
      1 CA         25.4620   -4.6967   -7.8293 C.3       0 UNK        -0.2020 
      2 C          25.4191   -5.0815   -6.3594 C.2       0 UNK         0.4855 
      3 O          24.3354   -5.2146   -5.7895 O.2       0 UNK        -0.5197 
      4 N          26.5910   -5.2769   -5.7454 N.am      1 UNK        -0.4892 
      5 CA         26.7439   -5.5572   -4.3164 C.3       1 UNK         0.0835 
      6 C6         28.0680   -6.3073   -4.0147 C.3       12 UNK        -0.0855 
      7 S7         29.5788   -5.5051   -4.6713 S.3       12 UNK        -0.2931 
      8 C8         30.5720   -5.2082   -3.1721 C.3       12 UNK         0.0378 
      9 C9         30.8553   -3.7276   -2.9637 C.ar      12 UNK        -0.0802 
     10 C10        32.0369   -3.1595   -3.4519 C.ar      12 UNK        -0.0944 
     11 C11        32.3347   -1.8112   -3.2254 C.ar      12 UNK        -0.0787 
     12 C12        31.4303   -1.0374   -2.4863 C.ar      12 UNK        -0.0862 
     13 C13        30.2293   -1.5814   -2.0223 C.ar      12 UNK        -0.0733 
     14 C14        29.9507   -2.9301   -2.2581 C.ar      12 UNK        -0.0832 
     15 C15        29.2443   -0.7118   -1.2515 C.3       12 UNK         0.0240 
     16 S16        27.8711   -0.1179   -2.2945 S.3       12 UNK        -0.2522 
     17 C17        28.7166    1.0113   -3.4509 C.3       12 UNK        -0.0967 
     18 CA         28.0755    0.9933   -4.8584 C.3       5 UNK         0.0660 
     19 N          26.6815    1.4531   -4.8163 N.am      5 UNK        -0.4015 
     20 C          25.8637    1.7345   -5.8422 C.2       4 UNK         0.4946 
     21 O          26.2306    1.8425   -7.0150 O.2       4 UNK        -0.5353 
     22 CA         24.3723    1.9103   -5.4813 C.3       4 UNK         0.0277 
     23 CB         23.4482    1.8177   -6.7140 C.3       4 UNK        -0.1981 
     24 N          23.9143    0.9921   -4.4229 N.am      4 UNK        -0.4209 
     25 C          23.9938   -0.3488   -4.4304 C.2       3 UNK         0.4942 
     26 O          24.4490   -1.0151   -5.3607 O.2       3 UNK        -0.5208 
     27 CA         23.4958   -1.0764   -3.1796 C.3       3 UNK         0.0250 
     28 CB         22.2049   -1.8646   -3.4689 C.3       3 UNK        -0.1990 
     29 N          24.5589   -1.9752   -2.7436 N.am      3 UNK        -0.4232 
     30 C          24.7191   -2.4663   -1.5115 C.2       2 UNK         0.4993 
     31 O          23.9214   -2.2636   -0.5937 O.2       2 UNK        -0.5286 
     32 CA         25.9803   -3.3218   -1.2610 C.3       2 UNK         0.0209 
     33 CB         26.0292   -3.9133    0.1605 C.3       2 UNK        -0.1931 
     34 N          26.1518   -4.4097   -2.2305 N.am      2 UNK        -0.4546 
     35 C          26.5953   -4.2659   -3.4865 C.2       1 UNK         0.5154 
     36 O          26.8863   -3.1730   -3.9780 O.2       1 UNK        -0.5181 
     37 C          28.9827    1.7462   -5.8469 C.2       5 UNK         0.5014 
     38 O          29.7481    1.1077   -6.5705 O.2       5 UNK        -0.5248 
     39 N          28.8761    3.0809   -5.8744 N.am      6 UNK        -0.4434 
     40 CA         29.6794    3.9565   -6.7297 C.3       6 UNK         0.0363 
     41 CB         29.3422    5.4232   -6.4208 C.3       6 UNK        -0.1936 
     42 C          29.5307    3.6771   -8.2363 C.2       6 UNK         0.5081 
     43 O          30.5014    3.8573   -8.9722 O.2       6 UNK        -0.5248 
     44 N          28.3378    3.2344   -8.6554 N.am      7 UNK        -0.4718 
     45 CA         28.0016    2.9445  -10.0474 C.3       7 UNK         0.0273 
     46 CB         26.7068    3.6873  -10.4188 C.3       7 UNK        -0.1935 
     47 C          27.8431    1.4387  -10.2899 C.2       7 UNK         0.5018 
     48 O          28.4175    0.9236  -11.2484 O.2       7 UNK        -0.5186 
     49 N          27.0631    0.7587   -9.4379 N.am      8 UNK        -0.4240 
     50 CA         26.6578   -0.6355   -9.6328 C.3       8 UNK         0.0235 
     51 CB         25.3976   -0.9250   -8.8071 C.3       8 UNK        -0.2000 
     52 C          27.7713   -1.6395   -9.3076 C.2       8 UNK         0.4941 
     53 O          27.9442   -2.6033  -10.0540 O.2       8 UNK        -0.5273 
     54 N          28.5209   -1.3881   -8.2253 N.am      9 UNK        -0.4262 
     55 CA         29.7231   -2.1519   -7.8704 C.3       9 UNK         0.0264 
     56 CB         29.8370   -2.2570   -6.3392 C.3       9 UNK        -0.1955 
     57 C          30.9963   -1.5330   -8.4798 C.2       9 UNK         0.5031 
     58 O          32.0665   -2.1314   -8.3632 O.2       9 UNK        -0.5390 
     59 N          30.8589   -0.3508   -9.1038 N.am      10 UNK        -0.4204 
     60 CA         31.9044    0.4954   -9.6894 C.3       10 UNK         0.0237 
     61 CB         32.5320   -0.1838  -10.9249 C.3       10 UNK        -0.1985 
     62 C          32.9500    0.9560   -8.6544 C.2       10 UNK         0.4970 
     63 O          34.1281    1.0919   -8.9900 O.2       10 UNK        -0.4914 
     64 N          32.5017    1.1791   -7.4121 N.am      11 UNK        -0.4285 
     65 CA         33.3414    1.5637   -6.2701 C.3       11 UNK         0.1007 
     66 C          33.8099    3.0508   -6.2733 C.2       11 UNK         0.5703 
     67 N          33.3491    3.8975   -7.1877 N.am      11 UNK        -0.7361 
     68 O          34.6210    3.4445   -5.4392 O.2       11 UNK        -0.4986 
     69 C69        32.6658    1.1466   -4.9335 C.3       12 UNK        -0.0947 
     70 S70        33.8630    0.5637   -3.6862 S.3       12 UNK        -0.2240 
     71 C71        33.6473   -1.2511   -3.7846 C.3       12 UNK         0.0194 
     72 H72        26.3935   -4.1918   -8.0848 H         1 UNK         0.0906 
     73 H73        25.3666   -5.5841   -8.4542 H         1 UNK         0.0906 
     74 H74        24.6364   -4.0263   -8.0637 H         1 UNK         0.0906 
     75 H75        27.4578   -5.1178   -6.2397 H         1 UNK         0.3140 
     76 H76        25.9264   -6.2196   -4.0214 H         1 UNK         0.1085 
     77 H77        28.1622   -6.4930   -2.9439 H         1 UNK         0.0836 
     78 H78        28.0172   -7.2997   -4.4655 H         1 UNK         0.0836 
     79 H79        30.0844   -5.6142   -2.2855 H         1 UNK         0.0731 
     80 H80        31.5110   -5.7557   -3.2667 H         1 UNK         0.0731 
     81 H81        32.7326   -3.7737   -4.0075 H         1 UNK         0.1312 
     82 H82        31.6435    0.0002   -2.2758 H         1 UNK         0.1406 
     83 H83        29.0309   -3.3616   -1.8913 H         1 UNK         0.1631 
     84 H84        29.7525    0.1450   -0.8063 H         1 UNK         0.0717 
     85 H85        28.8313   -1.2828   -0.4188 H         1 UNK         0.0717 
     86 H86        28.7006    2.0169   -3.0261 H         1 UNK         0.0934 
     87 H87        29.7668    0.7331   -3.5202 H         1 UNK         0.0934 
     88 H88        28.0374   -0.0432   -5.1995 H         1 UNK         0.0739 
     89 H89        26.2581    1.3978   -3.9017 H         1 UNK         0.3093 
     90 H90        24.2810    2.9201   -5.0786 H         1 UNK         0.0818 
     91 H91        23.7292    2.5468   -7.4751 H         1 UNK         0.0819 
     92 H92        23.4906    0.8314   -7.1756 H         1 UNK         0.0819 
     93 H93        22.4106    2.0156   -6.4461 H         1 UNK         0.0819 
     94 H94        23.5193    1.4385   -3.6059 H         1 UNK         0.3041 
     95 H95        23.3022   -0.3462   -2.3908 H         1 UNK         0.0784 
     96 H96        21.4162   -1.2034   -3.8298 H         1 UNK         0.0793 
     97 H97        22.3654   -2.6302   -4.2296 H         1 UNK         0.0793 
     98 H98        21.8295   -2.3581   -2.5723 H         1 UNK         0.0793 
     99 H99        25.2702   -2.1808   -3.4439 H         1 UNK         0.3024 
    100 H100       26.8280   -2.6431   -1.3562 H         1 UNK         0.1171 
    101 H101       26.9601   -4.4533    0.3346 H         1 UNK         0.0786 
    102 H102       25.9705   -3.1269    0.9144 H         1 UNK         0.0786 
    103 H103       25.2017   -4.6007    0.3403 H         1 UNK         0.0786 
    104 H104       25.8974   -5.3325   -1.9076 H         1 UNK         0.2977 
    105 H105       28.2033    3.5250   -5.2666 H         1 UNK         0.3127 
    106 H106       30.7238    3.7866   -6.4668 H         1 UNK         0.0770 
    107 H107       28.2960    5.6498   -6.6300 H         1 UNK         0.0814 
    108 H108       29.9492    6.0978   -7.0265 H         1 UNK         0.0814 
    109 H109       29.5385    5.6655   -5.3762 H         1 UNK         0.0814 
    110 H110       27.6221    3.0388   -7.9628 H         1 UNK         0.2983 
    111 H111       28.7917    3.3008  -10.7126 H         1 UNK         0.0947 
    112 H112       26.4178    3.4787  -11.4499 H         1 UNK         0.0806 
    113 H113       26.8334    4.7664  -10.3306 H         1 UNK         0.0806 
    114 H114       25.8722    3.3964   -9.7792 H         1 UNK         0.0806 
    115 H115       26.6655    1.2391   -8.6307 H         1 UNK         0.3000 
    116 H116       26.3980   -0.7645  -10.6862 H         1 UNK         0.0850 
    117 H117       25.5911   -0.8557   -7.7364 H         1 UNK         0.0810 
    118 H118       24.5966   -0.2275   -9.0508 H         1 UNK         0.0810 
    119 H119       25.0226   -1.9271   -9.0108 H         1 UNK         0.0810 
    120 H120       28.3188   -0.5716   -7.6641 H         1 UNK         0.3040 
    121 H121       29.6388   -3.1681   -8.2612 H         1 UNK         0.0766 
    122 H122       30.0702   -1.3038   -5.8686 H         1 UNK         0.0812 
    123 H123       30.6369   -2.9444   -6.0632 H         1 UNK         0.0812 
    124 H124       28.9188   -2.6372   -5.8906 H         1 UNK         0.0812 
    125 H125       29.9286    0.0402   -9.1250 H         1 UNK         0.3205 
    126 H126       31.4024    1.4012  -10.0327 H         1 UNK         0.0754 
    127 H127       33.2119    0.4944  -11.4420 H         1 UNK         0.0769 
    128 H128       31.7673   -0.4825  -11.6422 H         1 UNK         0.0769 
    129 H129       33.1029   -1.0721  -10.6526 H         1 UNK         0.0769 
    130 H130       31.5097    1.0694   -7.2155 H         1 UNK         0.2981 
    131 H131       34.2572    0.9780   -6.3701 H         1 UNK         0.0541 
    132 H132       32.6893    3.5957   -7.8888 H         1 UNK         0.3459 
    133 H133       33.6746    4.8509   -7.1800 H         1 UNK         0.3459 
    134 H134       31.9511    0.3397   -5.1028 H         1 UNK         0.0612 
    135 H135       32.0793    1.9647   -4.5116 H         1 UNK         0.0612 
    136 H136       33.7512   -1.5515   -4.8287 H         1 UNK         0.0624 
    137 H137       34.4732   -1.7166   -3.2455 H         1 UNK         0.0624 
@<TRIPOS>BOND
     1    1    2 1    
     2    1   72 1    
     3    1   73 1    
     4    1   74 1    
     5    2    3 2    
     6    2    4 am   BACKBONE|DICT|INTERRES
     7    4    5 1    
     8    4   75 1    
     9    5    6 1    
    10    5   35 1    
    11    5   76 1    
    12    6    7 1    
    13    6   77 1    
    14    6   78 1    
    15    7    8 1    
    16    8    9 1    
    17    8   79 1    
    18    8   80 1    
    19    9   10 ar   
    20    9   14 ar   
    21   10   11 ar   
    22   10   81 1    
    23   11   12 ar   
    24   11   71 1    
    25   12   13 ar   
    26   12   82 1    
    27   13   14 ar   
    28   13   15 1    
    29   14   83 1    
    30   15   16 1    
    31   15   84 1    
    32   15   85 1    
    33   16   17 1    
    34   17   18 1    
    35   17   86 1    
    36   17   87 1    
    37   18   19 1    
    38   18   37 1    
    39   18   88 1    
    40   19   20 am   BACKBONE|DICT|INTERRES
    41   19   89 1    
    42   20   21 2    
    43   20   22 1    
    44   22   23 1    
    45   22   24 1    
    46   22   90 1    
    47   23   91 1    
    48   23   92 1    
    49   23   93 1    
    50   24   25 am   BACKBONE|DICT|INTERRES
    51   24   94 1    
    52   25   26 2    
    53   25   27 1    
    54   27   28 1    
    55   27   29 1    
    56   27   95 1    
    57   28   96 1    
    58   28   97 1    
    59   28   98 1    
    60   29   30 am   BACKBONE|DICT|INTERRES
    61   29   99 1    
    62   30   31 2    
    63   30   32 1    
    64   32   33 1    
    65   32   34 1    
    66   32  100 1    
    67   33  101 1    
    68   33  102 1    
    69   33  103 1    
    70   34   35 am   BACKBONE|DICT|INTERRES
    71   34  104 1    
    72   35   36 2    
    73   37   38 2    
    74   37   39 am   BACKBONE|DICT|INTERRES
    75   39   40 1    
    76   39  105 1    
    77   40   41 1    
    78   40   42 1    
    79   40  106 1    
    80   41  107 1    
    81   41  108 1    
    82   41  109 1    
    83   42   43 2    
    84   42   44 am   BACKBONE|DICT|INTERRES
    85   44   45 1    
    86   44  110 1    
    87   45   46 1    
    88   45   47 1    
    89   45  111 1    
    90   46  112 1    
    91   46  113 1    
    92   46  114 1    
    93   47   48 2    
    94   47   49 am   BACKBONE|DICT|INTERRES
    95   49   50 1    
    96   49  115 1    
    97   50   51 1    
    98   50   52 1    
    99   50  116 1    
   100   51  117 1    
   101   51  118 1    
   102   51  119 1    
   103   52   53 2    
   104   52   54 am   BACKBONE|DICT|INTERRES
   105   54   55 1    
   106   54  120 1    
   107   55   56 1    
   108   55   57 1    
   109   55  121 1    
   110   56  122 1    
   111   56  123 1    
   112   56  124 1    
   113   57   58 2    
   114   57   59 am   BACKBONE|DICT|INTERRES
   115   59   60 1    
   116   59  125 1    
   117   60   61 1    
   118   60   62 1    
   119   60  126 1    
   120   61  127 1    
   121   61  128 1    
   122   61  129 1    
   123   62   63 2    
   124   62   64 am   BACKBONE|DICT|INTERRES
   125   64   65 1    
   126   64  130 1    
   127   65   66 1    
   128   65   69 1    
   129   65  131 1    
   130   66   67 am   BACKBONE|DICT|INTERRES
   131   66   68 2    
   132   67  132 1    
   133   67  133 1    
   134   69   70 1    
   135   69  134 1    
   136   69  135 1    
   137   70   71 1    
   138   71  136 1    
   139   71  137 1    
@<TRIPOS>SUBSTRUCTURE
     1 UNK         1 GROUP             0       ****    0 ROOT    
