@<TRIPOS>MOLECULE
3R137
137   139    1
SMALL
USER_CHARGES


@<TRIPOS>ATOM
      1 CA         26.0088   -6.2449   -3.1525 C.3       0 UNK        -0.2020 
      2 C          26.1529   -5.5667   -1.7987 C.2       0 UNK         0.4855 
      3 O          25.3693   -5.8417   -0.8897 O.2       0 UNK        -0.5197 
      4 N          27.1511   -4.6843   -1.6576 N.am      1 UNK        -0.4892 
      5 CA         27.4266   -3.9332   -0.4237 C.3       1 UNK         0.0835 
      6 C6         28.9125   -3.5035   -0.3100 C.3       12 UNK        -0.0855 
      7 S7         30.0073   -4.9605   -0.1413 S.3       12 UNK        -0.2931 
      8 C8         31.5908   -4.3764   -0.8514 C.3       12 UNK         0.0378 
      9 C9         31.5797   -4.0580   -2.3487 C.ar      12 UNK        -0.0802 
     10 C10        32.6337   -3.3087   -2.8844 C.ar      12 UNK        -0.0944 
     11 C11        32.6457   -2.9458   -4.2357 C.ar      12 UNK        -0.0787 
     12 C12        31.5718   -3.3183   -5.0508 C.ar      12 UNK        -0.0862 
     13 C13        30.5206   -4.0792   -4.5362 C.ar      12 UNK        -0.0733 
     14 C14        30.5492   -4.4764   -3.1986 C.ar      12 UNK        -0.0832 
     15 C15        29.3245   -4.4300   -5.4066 C.3       12 UNK         0.0240 
     16 S16        27.8222   -3.5776   -4.8278 S.3       12 UNK        -0.2522 
     17 C17        28.2445   -1.8233   -5.1071 C.3       12 UNK        -0.0967 
     18 CA         27.4590   -1.2342   -6.2979 C.3       5 UNK         0.0660 
     19 N          26.0113   -1.3223   -6.1093 N.am      5 UNK        -0.4015 
     20 C          25.1152   -1.3562   -7.1045 C.2       4 UNK         0.4946 
     21 O          25.4198   -1.3645   -8.2971 O.2       4 UNK        -0.5353 
     22 CA         23.6257   -1.3491   -6.7071 C.3       4 UNK         0.0277 
     23 CB         23.1048   -2.7880   -6.5634 C.3       4 UNK        -0.1981 
     24 N          23.3574   -0.6093   -5.4693 N.am      4 UNK        -0.4209 
     25 C          23.6042    0.6971   -5.2984 C.2       3 UNK         0.4942 
     26 O          23.9894    1.4357   -6.2040 O.2       3 UNK        -0.5208 
     27 CA         23.4631    1.2743   -3.8771 C.3       3 UNK         0.0250 
     28 CB         22.0993    1.9648   -3.7191 C.3       3 UNK        -0.1990 
     29 N          23.6540    0.3204   -2.7744 N.am      3 UNK        -0.4232 
     30 C          24.7120   -0.4825   -2.5825 C.2       2 UNK         0.4993 
     31 O          25.6463   -0.5839   -3.3814 O.2       2 UNK        -0.5286 
     32 CA         24.7091   -1.3209   -1.2952 C.3       2 UNK         0.0209 
     33 CB         23.3755   -2.0701   -1.0889 C.3       2 UNK        -0.1931 
     34 N          25.8012   -2.2953   -1.3151 N.am      2 UNK        -0.4546 
     35 C          26.4562   -2.7449   -0.2355 C.2       1 UNK         0.5154 
     36 O          26.2863   -2.2871    0.8960 O.2       1 UNK        -0.5181 
     37 C          27.8879    0.2169   -6.5763 C.2       5 UNK         0.5014 
     38 O          28.8087    0.4264   -7.3655 O.2       5 UNK        -0.5248 
     39 N          27.2004    1.2003   -5.9742 N.am      6 UNK        -0.4434 
     40 CA         27.3907    2.6265   -6.2628 C.3       6 UNK         0.0363 
     41 CB         26.6359    3.4862   -5.2375 C.3       6 UNK        -0.1936 
     42 C          26.9761    2.9826   -7.7007 C.2       6 UNK         0.5081 
     43 O          27.6877    3.7318   -8.3687 O.2       6 UNK        -0.5248 
     44 N          25.8820    2.3748   -8.1825 N.am      7 UNK        -0.4718 
     45 CA         25.4383    2.4266   -9.5805 C.3       7 UNK         0.0273 
     46 CB         24.0543    1.7694   -9.6980 C.3       7 UNK        -0.1935 
     47 C          26.4339    1.7807  -10.5659 C.2       7 UNK         0.5018 
     48 O          26.4783    2.1856  -11.7274 O.2       7 UNK        -0.5186 
     49 N          27.2424    0.8289  -10.0783 N.am      8 UNK        -0.4240 
     50 CA         28.3672    0.2120  -10.7877 C.3       8 UNK         0.0235 
     51 CB         28.4791   -1.2639  -10.3630 C.3       8 UNK        -0.2000 
     52 C          29.6959    0.9702  -10.5692 C.2       8 UNK         0.4941 
     53 O          30.7576    0.4099  -10.8453 O.2       8 UNK        -0.5273 
     54 N          29.6239    2.2192  -10.0822 N.am      9 UNK        -0.4262 
     55 CA         30.7206    3.1653   -9.8473 C.3       9 UNK         0.0264 
     56 CB         31.4939    3.4695  -11.1493 C.3       9 UNK        -0.1955 
     57 C          31.6488    2.7985   -8.6737 C.2       9 UNK         0.5031 
     58 O          32.7724    3.3034   -8.6255 O.2       9 UNK        -0.5390 
     59 N          31.1726    1.9612   -7.7370 N.am      10 UNK        -0.4204 
     60 CA         31.8119    1.5961   -6.4639 C.3       10 UNK         0.0237 
     61 CB         31.7007    2.7666   -5.4639 C.3       10 UNK        -0.1985 
     62 C          33.2568    1.0791   -6.6126 C.2       10 UNK         0.4970 
     63 O          34.1275    1.4538   -5.8250 O.2       10 UNK        -0.4914 
     64 N          33.4789    0.2354   -7.6292 N.am      11 UNK        -0.4285 
     65 CA         34.7839   -0.3291   -8.0192 C.3       11 UNK         0.1007 
     66 C          35.7956    0.7104   -8.5970 C.2       11 UNK         0.5703 
     67 N          35.3995    1.9409   -8.9044 N.am      11 UNK        -0.7361 
     68 O          36.9618    0.3857   -8.8099 O.2       11 UNK        -0.4986 
     69 C69        35.4231   -1.2368   -6.9227 C.3       12 UNK        -0.0947 
     70 S70        34.3539   -2.6324   -6.4355 S.3       12 UNK        -0.2240 
     71 C71        33.7858   -2.0952   -4.7861 C.3       12 UNK         0.0194 
     72 H72        25.2820   -5.7122   -3.7652 H         1 UNK         0.0906 
     73 H73        26.9566   -6.2755   -3.6892 H         1 UNK         0.0906 
     74 H74        25.6642   -7.2713   -3.0281 H         1 UNK         0.0906 
     75 H75        27.7379   -4.4671   -2.4511 H         1 UNK         0.3140 
     76 H76        27.2249   -4.5990    0.4192 H         1 UNK         0.1085 
     77 H77        29.2070   -2.9030   -1.1724 H         1 UNK         0.0836 
     78 H78        29.0675   -2.8738    0.5685 H         1 UNK         0.0836 
     79 H79        31.9067   -3.4925   -0.2949 H         1 UNK         0.0731 
     80 H80        32.3475   -5.1409   -0.6706 H         1 UNK         0.0731 
     81 H81        33.4423   -2.9914   -2.2395 H         1 UNK         0.1312 
     82 H82        31.5477   -3.0043   -6.0854 H         1 UNK         0.1406 
     83 H83        29.7376   -5.0785   -2.8196 H         1 UNK         0.1631 
     84 H84        29.5053   -4.1720   -6.4513 H         1 UNK         0.0717 
     85 H85        29.1583   -5.5077   -5.3771 H         1 UNK         0.0717 
     86 H86        28.0382   -1.2717   -4.1885 H         1 UNK         0.0934 
     87 H87        29.3166   -1.7207   -5.2776 H         1 UNK         0.0934 
     88 H88        27.7227   -1.8187   -7.1819 H         1 UNK         0.0739 
     89 H89        25.6922   -1.2768   -5.1453 H         1 UNK         0.3093 
     90 H90        23.0739   -0.8604   -7.5129 H         1 UNK         0.0818 
     91 H91        22.0333   -2.8052   -6.3630 H         1 UNK         0.0819 
     92 H92        23.2697   -3.3548   -7.4810 H         1 UNK         0.0819 
     93 H93        23.6080   -3.3223   -5.7563 H         1 UNK         0.0819 
     94 H94        23.0363   -1.1431   -4.6751 H         1 UNK         0.3041 
     95 H95        24.2390    2.0339   -3.7685 H         1 UNK         0.0784 
     96 H96        21.9393    2.7004   -4.5091 H         1 UNK         0.0793 
     97 H97        21.2767    1.2500   -3.7684 H         1 UNK         0.0793 
     98 H98        22.0287    2.4952   -2.7693 H         1 UNK         0.0793 
     99 H99        22.9321    0.3218   -2.0682 H         1 UNK         0.3024 
    100 H100       24.8619   -0.6238   -0.4679 H         1 UNK         0.1171 
    101 H101       23.4049   -2.6877   -0.1909 H         1 UNK         0.0786 
    102 H102       22.5371   -1.3837   -0.9678 H         1 UNK         0.0786 
    103 H103       23.1487   -2.7255   -1.9310 H         1 UNK         0.0786 
    104 H104       26.0476   -2.6557   -2.2270 H         1 UNK         0.2977 
    105 H105       26.4546    0.9530   -5.3390 H         1 UNK         0.3127 
    106 H106       28.4556    2.8446   -6.1649 H         1 UNK         0.0770 
    107 H107       25.5556    3.3778   -5.3293 H         1 UNK         0.0814 
    108 H108       26.8646    4.5431   -5.3803 H         1 UNK         0.0814 
    109 H109       26.9172    3.2294   -4.2162 H         1 UNK         0.0814 
    110 H110       25.3039    1.8406   -7.5375 H         1 UNK         0.2983 
    111 H111       25.3431    3.4785   -9.8581 H         1 UNK         0.0947 
    112 H112       23.6740    1.8397  -10.7180 H         1 UNK         0.0806 
    113 H113       23.3277    2.2547   -9.0460 H         1 UNK         0.0806 
    114 H114       24.0862    0.7123   -9.4340 H         1 UNK         0.0806 
    115 H115       27.1310    0.5629   -9.1093 H         1 UNK         0.3000 
    116 H116       28.1650    0.2337  -11.8605 H         1 UNK         0.0850 
    117 H117       27.5264   -1.7832  -10.4707 H         1 UNK         0.0810 
    118 H118       28.8001   -1.3640   -9.3268 H         1 UNK         0.0810 
    119 H119       29.2072   -1.7933  -10.9787 H         1 UNK         0.0810 
    120 H120       28.7102    2.5719   -9.8196 H         1 UNK         0.3040 
    121 H121       30.2343    4.0933   -9.5434 H         1 UNK         0.0766 
    122 H122       30.8175    3.7390  -11.9602 H         1 UNK         0.0812 
    123 H123       32.0902    2.6173  -11.4763 H         1 UNK         0.0812 
    124 H124       32.1791    4.3068  -11.0109 H         1 UNK         0.0812 
    125 H125       30.2534    1.5460   -7.8791 H         1 UNK         0.3205 
    126 H126       31.2363    0.7622   -6.0593 H         1 UNK         0.0754 
    127 H127       32.2765    3.6323   -5.7936 H         1 UNK         0.0769 
    128 H128       32.0747    2.4805   -4.4800 H         1 UNK         0.0769 
    129 H129       30.6668    3.0829   -5.3329 H         1 UNK         0.0769 
    130 H130       32.7077    0.0110   -8.2413 H         1 UNK         0.2981 
    131 H131       34.5605   -0.9745   -8.8692 H         1 UNK         0.0541 
    132 H132       34.4481    2.2515   -8.7343 H         1 UNK         0.3459 
    133 H133       36.0704    2.5863   -9.2887 H         1 UNK         0.3459 
    134 H134       35.6996   -0.6551   -6.0425 H         1 UNK         0.0612 
    135 H135       36.3524   -1.6750   -7.2903 H         1 UNK         0.0612 
    136 H136       33.4428   -1.0635   -4.8287 H         1 UNK         0.0624 
    137 H137       34.6401   -2.1114   -4.1076 H         1 UNK         0.0624 
@<TRIPOS>BOND
     1    1    2 1    
     2    1   72 1    
     3    1   73 1    
     4    1   74 1    
     5    2    3 2    
     6    2    4 am   BACKBONE|DICT|INTERRES
     7    4    5 1    
     8    4   75 1    
     9    5    6 1    
    10    5   35 1    
    11    5   76 1    
    12    6    7 1    
    13    6   77 1    
    14    6   78 1    
    15    7    8 1    
    16    8    9 1    
    17    8   79 1    
    18    8   80 1    
    19    9   10 ar   
    20    9   14 ar   
    21   10   11 ar   
    22   10   81 1    
    23   11   12 ar   
    24   11   71 1    
    25   12   13 ar   
    26   12   82 1    
    27   13   14 ar   
    28   13   15 1    
    29   14   83 1    
    30   15   16 1    
    31   15   84 1    
    32   15   85 1    
    33   16   17 1    
    34   17   18 1    
    35   17   86 1    
    36   17   87 1    
    37   18   19 1    
    38   18   37 1    
    39   18   88 1    
    40   19   20 am   BACKBONE|DICT|INTERRES
    41   19   89 1    
    42   20   21 2    
    43   20   22 1    
    44   22   23 1    
    45   22   24 1    
    46   22   90 1    
    47   23   91 1    
    48   23   92 1    
    49   23   93 1    
    50   24   25 am   BACKBONE|DICT|INTERRES
    51   24   94 1    
    52   25   26 2    
    53   25   27 1    
    54   27   28 1    
    55   27   29 1    
    56   27   95 1    
    57   28   96 1    
    58   28   97 1    
    59   28   98 1    
    60   29   30 am   BACKBONE|DICT|INTERRES
    61   29   99 1    
    62   30   31 2    
    63   30   32 1    
    64   32   33 1    
    65   32   34 1    
    66   32  100 1    
    67   33  101 1    
    68   33  102 1    
    69   33  103 1    
    70   34   35 am   BACKBONE|DICT|INTERRES
    71   34  104 1    
    72   35   36 2    
    73   37   38 2    
    74   37   39 am   BACKBONE|DICT|INTERRES
    75   39   40 1    
    76   39  105 1    
    77   40   41 1    
    78   40   42 1    
    79   40  106 1    
    80   41  107 1    
    81   41  108 1    
    82   41  109 1    
    83   42   43 2    
    84   42   44 am   BACKBONE|DICT|INTERRES
    85   44   45 1    
    86   44  110 1    
    87   45   46 1    
    88   45   47 1    
    89   45  111 1    
    90   46  112 1    
    91   46  113 1    
    92   46  114 1    
    93   47   48 2    
    94   47   49 am   BACKBONE|DICT|INTERRES
    95   49   50 1    
    96   49  115 1    
    97   50   51 1    
    98   50   52 1    
    99   50  116 1    
   100   51  117 1    
   101   51  118 1    
   102   51  119 1    
   103   52   53 2    
   104   52   54 am   BACKBONE|DICT|INTERRES
   105   54   55 1    
   106   54  120 1    
   107   55   56 1    
   108   55   57 1    
   109   55  121 1    
   110   56  122 1    
   111   56  123 1    
   112   56  124 1    
   113   57   58 2    
   114   57   59 am   BACKBONE|DICT|INTERRES
   115   59   60 1    
   116   59  125 1    
   117   60   61 1    
   118   60   62 1    
   119   60  126 1    
   120   61  127 1    
   121   61  128 1    
   122   61  129 1    
   123   62   63 2    
   124   62   64 am   BACKBONE|DICT|INTERRES
   125   64   65 1    
   126   64  130 1    
   127   65   66 1    
   128   65   69 1    
   129   65  131 1    
   130   66   67 am   BACKBONE|DICT|INTERRES
   131   66   68 2    
   132   67  132 1    
   133   67  133 1    
   134   69   70 1    
   135   69  134 1    
   136   69  135 1    
   137   70   71 1    
   138   71  136 1    
   139   71  137 1    
@<TRIPOS>SUBSTRUCTURE
     1 UNK         1 GROUP             0       ****    0 ROOT    
