@<TRIPOS>MOLECULE
3R137
137   139    1
SMALL
USER_CHARGES


@<TRIPOS>ATOM
      1 CA         26.8721   -9.4093   -0.6283 C.3       0 UNK        -0.2020 
      2 C          26.6072   -7.9125   -0.6948 C.2       0 UNK         0.4855 
      3 O          25.4492   -7.4970   -0.7517 O.2       0 UNK        -0.5197 
      4 N          27.6699   -7.0995   -0.6784 N.am      1 UNK        -0.4892 
      5 CA         27.6136   -5.6411   -0.8175 C.3       1 UNK         0.0835 
      6 C6         28.9007   -4.9661   -0.2750 C.3       12 UNK        -0.0855 
      7 S7         30.4450   -5.5768   -1.0408 S.3       12 UNK        -0.2931 
      8 C8         31.5846   -4.1902   -0.7331 C.3       12 UNK         0.0378 
      9 C9         31.2320   -2.9445   -1.5369 C.ar      12 UNK        -0.0802 
     10 C10        31.3160   -2.9592   -2.9328 C.ar      12 UNK        -0.0944 
     11 C11        31.0387   -1.8064   -3.6732 C.ar      12 UNK        -0.0787 
     12 C12        30.6943   -0.6291   -3.0051 C.ar      12 UNK        -0.0862 
     13 C13        30.5903   -0.6010   -1.6118 C.ar      12 UNK        -0.0733 
     14 C14        30.8572   -1.7655   -0.8836 C.ar      12 UNK        -0.0832 
     15 C15        30.2269    0.6896   -0.8866 C.3       12 UNK         0.0240 
     16 S16        28.5812    1.3227   -1.3567 S.3       12 UNK        -0.2522 
     17 C17        28.9802    2.5978   -2.6061 C.3       12 UNK        -0.0967 
     18 CA         28.3730    2.2908   -3.9995 C.3       5 UNK         0.0660 
     19 N          26.9132    2.1818   -3.9547 N.am      5 UNK        -0.4015 
     20 C          26.1906    1.4420   -4.8009 C.2       4 UNK         0.4946 
     21 O          26.6806    0.7444   -5.6938 O.2       4 UNK        -0.5353 
     22 CA         24.6701    1.4963   -4.6510 C.3       4 UNK         0.0277 
     23 CB         24.0503    2.4888   -5.6507 C.3       4 UNK        -0.1981 
     24 N          24.1885    0.1483   -4.9082 N.am      4 UNK        -0.4209 
     25 C          23.0682   -0.4014   -4.4305 C.2       3 UNK         0.4942 
     26 O          22.2027    0.2191   -3.8117 O.2       3 UNK        -0.5208 
     27 CA         22.9066   -1.9157   -4.6574 C.3       3 UNK         0.0250 
     28 CB         22.2015   -2.1900   -5.9959 C.3       3 UNK        -0.1990 
     29 N          24.1877   -2.6336   -4.6208 N.am      3 UNK        -0.4232 
     30 C          24.9411   -2.7773   -3.5210 C.2       2 UNK         0.4993 
     31 O          24.6137   -2.3725   -2.4017 O.2       2 UNK        -0.5286 
     32 CA         26.3001   -3.4602   -3.7060 C.3       2 UNK         0.0209 
     33 CB         27.3650   -2.4467   -4.1625 C.3       2 UNK        -0.1931 
     34 N          26.7083   -4.0382   -2.4292 N.am      2 UNK        -0.4546 
     35 C          27.3059   -5.2229   -2.2728 C.2       1 UNK         0.5154 
     36 O          27.6193   -5.9595   -3.2134 O.2       1 UNK        -0.5181 
     37 C          28.7519    3.3488   -5.0540 C.2       5 UNK         0.5014 
     38 O          29.0931    4.4793   -4.7002 O.2       5 UNK        -0.5248 
     39 N          28.6094    2.9812   -6.3308 N.am      6 UNK        -0.4434 
     40 CA         28.7510    3.8613   -7.4853 C.3       6 UNK         0.0363 
     41 CB         27.3904    4.5279   -7.7730 C.3       6 UNK        -0.1936 
     42 C          29.2520    3.0604   -8.6921 C.2       6 UNK         0.5081 
     43 O          29.4514    1.8449   -8.5961 O.2       6 UNK        -0.5248 
     44 N          29.4324    3.7561   -9.8236 N.am      7 UNK        -0.4718 
     45 CA         29.8962    3.2095  -11.1055 C.3       7 UNK         0.0273 
     46 CB         30.0128    4.3469  -12.1317 C.3       7 UNK        -0.1935 
     47 C          29.0255    2.0697  -11.6628 C.2       7 UNK         0.5018 
     48 O          29.5564    1.1903  -12.3399 O.2       7 UNK        -0.5186 
     49 N          27.7327    2.0563  -11.3065 N.am      8 UNK        -0.4240 
     50 CA         26.7857    0.9703  -11.5839 C.3       8 UNK         0.0235 
     51 CB         25.3897    1.3830  -11.0889 C.3       8 UNK        -0.2000 
     52 C          27.1906   -0.3861  -10.9707 C.2       8 UNK         0.4941 
     53 O          26.8236   -1.4240  -11.5222 O.2       8 UNK        -0.5273 
     54 N          27.9511   -0.3536   -9.8676 N.am      9 UNK        -0.4262 
     55 CA         28.5438   -1.5175   -9.2066 C.3       9 UNK         0.0264 
     56 CB         28.1621   -1.4737   -7.7178 C.3       9 UNK        -0.1955 
     57 C          30.0749   -1.5589   -9.3854 C.2       9 UNK         0.5031 
     58 O          30.7279   -2.3688   -8.7273 O.2       9 UNK        -0.5390 
     59 N          30.6202   -0.6915  -10.2550 N.am      10 UNK        -0.4204 
     60 CA         32.0441   -0.4742  -10.5401 C.3       10 UNK         0.0237 
     61 CB         32.6698   -1.7212  -11.2020 C.3       10 UNK        -0.1985 
     62 C          32.8572    0.0369   -9.3309 C.2       10 UNK         0.4970 
     63 O          34.0606   -0.2214   -9.2636 O.2       10 UNK        -0.4914 
     64 N          32.2041    0.7693   -8.4184 N.am      11 UNK        -0.4285 
     65 CA         32.7988    1.3320   -7.1921 C.3       11 UNK         0.1007 
     66 C          32.7349    2.8863   -7.1515 C.2       11 UNK         0.5703 
     67 N          32.5885    3.5679   -8.2816 N.am      11 UNK        -0.7361 
     68 O          32.8432    3.4923   -6.0885 O.2       11 UNK        -0.4986 
     69 C69        32.2141    0.6678   -5.9150 C.3       12 UNK        -0.0947 
     70 S70        32.6429   -1.1046   -5.8160 S.3       12 UNK        -0.2240 
     71 C71        31.1009   -1.8365   -5.1930 C.3       12 UNK         0.0194 
     72 H72        26.4737   -9.9001   -1.5159 H         1 UNK         0.0906 
     73 H73        27.9371   -9.6328   -0.5666 H         1 UNK         0.0906 
     74 H74        26.3846   -9.8385    0.2467 H         1 UNK         0.0906 
     75 H75        28.6029   -7.4883   -0.6748 H         1 UNK         0.3140 
     76 H76        26.7803   -5.2902   -0.2037 H         1 UNK         0.1085 
     77 H77        28.9732   -5.1356    0.8005 H         1 UNK         0.0836 
     78 H78        28.8352   -3.8832   -0.3950 H         1 UNK         0.0836 
     79 H79        32.5954   -4.5038   -0.9979 H         1 UNK         0.0731 
     80 H80        31.6037   -3.9756    0.3367 H         1 UNK         0.0731 
     81 H81        31.5983   -3.8714   -3.4406 H         1 UNK         0.1312 
     82 H82        30.5131    0.2692   -3.5716 H         1 UNK         0.1406 
     83 H83        30.7934   -1.7493    0.1961 H         1 UNK         0.1631 
     84 H84        30.9983    1.4394   -1.0645 H         1 UNK         0.0717 
     85 H85        30.2198    0.5246    0.1918 H         1 UNK         0.0717 
     86 H86        28.6132    3.5549   -2.2299 H         1 UNK         0.0934 
     87 H87        30.0626    2.7089   -2.6887 H         1 UNK         0.0934 
     88 H88        28.7802    1.3380   -4.3397 H         1 UNK         0.0739 
     89 H89        26.4451    2.7450   -3.2598 H         1 UNK         0.3093 
     90 H90        24.4152    1.7856   -3.6290 H         1 UNK         0.0818 
     91 H91        24.4199    3.5002   -5.4777 H         1 UNK         0.0819 
     92 H92        24.2914    2.2242   -6.6813 H         1 UNK         0.0819 
     93 H93        22.9646    2.5193   -5.5584 H         1 UNK         0.0819 
     94 H94        24.8598   -0.4318   -5.3960 H         1 UNK         0.3041 
     95 H95        22.2780   -2.3045   -3.8532 H         1 UNK         0.0784 
     96 H96        21.2360   -1.6836   -6.0378 H         1 UNK         0.0793 
     97 H97        22.7901   -1.8388   -6.8445 H         1 UNK         0.0793 
     98 H98        22.0126   -3.2547   -6.1345 H         1 UNK         0.0793 
     99 H99        24.5238   -3.0037   -5.4987 H         1 UNK         0.3024 
    100 H100       26.1919   -4.2447   -4.4589 H         1 UNK         0.1171 
    101 H101       27.5212   -1.6599   -3.4226 H         1 UNK         0.0786 
    102 H102       28.3239   -2.9353   -4.3350 H         1 UNK         0.0786 
    103 H103       27.0750   -1.9617   -5.0939 H         1 UNK         0.0786 
    104 H104       26.4093   -3.5083   -1.6200 H         1 UNK         0.2977 
    105 H105       28.3264    2.0301   -6.5441 H         1 UNK         0.3127 
    106 H106       29.4992    4.6278   -7.2717 H         1 UNK         0.0770 
    107 H107       27.4526    5.2355   -8.6001 H         1 UNK         0.0814 
    108 H108       27.0341    5.0867   -6.9073 H         1 UNK         0.0814 
    109 H109       26.6275    3.7903   -8.0263 H         1 UNK         0.0814 
    110 H110       29.2519    4.7501   -9.8066 H         1 UNK         0.2983 
    111 H111       30.8930    2.7960  -10.9412 H         1 UNK         0.0947 
    112 H112       30.3785    3.9734  -13.0895 H         1 UNK         0.0806 
    113 H113       30.7130    5.1132  -11.7983 H         1 UNK         0.0806 
    114 H114       29.0506    4.8267  -12.3152 H         1 UNK         0.0806 
    115 H115       27.3909    2.8261  -10.7502 H         1 UNK         0.3000 
    116 H116       26.7441    0.8381  -12.6672 H         1 UNK         0.0850 
    117 H117       25.3767    1.5526  -10.0113 H         1 UNK         0.0810 
    118 H118       24.6541    0.6067  -11.3049 H         1 UNK         0.0810 
    119 H119       25.0472    2.2951  -11.5781 H         1 UNK         0.0810 
    120 H120       28.2236    0.5459   -9.4818 H         1 UNK         0.3040 
    121 H121       28.1494   -2.4419   -9.6329 H         1 UNK         0.0766 
    122 H122       27.0801   -1.4500   -7.5878 H         1 UNK         0.0812 
    123 H123       28.5745   -0.5925   -7.2249 H         1 UNK         0.0812 
    124 H124       28.5329   -2.3526   -7.1893 H         1 UNK         0.0812 
    125 H125       29.9897   -0.1035  -10.7888 H         1 UNK         0.3205 
    126 H126       32.0776    0.3307  -11.2754 H         1 UNK         0.0754 
    127 H127       33.6776   -1.5110  -11.5621 H         1 UNK         0.0769 
    128 H128       32.0840   -2.0502  -12.0604 H         1 UNK         0.0769 
    129 H129       32.7422   -2.5562  -10.5045 H         1 UNK         0.0769 
    130 H130       31.2175    0.9703   -8.5520 H         1 UNK         0.2981 
    131 H131       33.8706    1.1282   -7.1856 H         1 UNK         0.0541 
    132 H132       32.5473    3.0892   -9.1653 H         1 UNK         0.3459 
    133 H133       32.5731    4.5746   -8.2486 H         1 UNK         0.3459 
    134 H134       31.1314    0.7993   -5.8921 H         1 UNK         0.0612 
    135 H135       32.6033    1.1385   -5.0107 H         1 UNK         0.0612 
    136 H136       30.2394   -1.3190   -5.6142 H         1 UNK         0.0624 
    137 H137       31.0377   -2.8646   -5.5526 H         1 UNK         0.0624 
@<TRIPOS>BOND
     1    1    2 1    
     2    1   72 1    
     3    1   73 1    
     4    1   74 1    
     5    2    3 2    
     6    2    4 am   BACKBONE|DICT|INTERRES
     7    4    5 1    
     8    4   75 1    
     9    5    6 1    
    10    5   35 1    
    11    5   76 1    
    12    6    7 1    
    13    6   77 1    
    14    6   78 1    
    15    7    8 1    
    16    8    9 1    
    17    8   79 1    
    18    8   80 1    
    19    9   10 ar   
    20    9   14 ar   
    21   10   11 ar   
    22   10   81 1    
    23   11   12 ar   
    24   11   71 1    
    25   12   13 ar   
    26   12   82 1    
    27   13   14 ar   
    28   13   15 1    
    29   14   83 1    
    30   15   16 1    
    31   15   84 1    
    32   15   85 1    
    33   16   17 1    
    34   17   18 1    
    35   17   86 1    
    36   17   87 1    
    37   18   19 1    
    38   18   37 1    
    39   18   88 1    
    40   19   20 am   BACKBONE|DICT|INTERRES
    41   19   89 1    
    42   20   21 2    
    43   20   22 1    
    44   22   23 1    
    45   22   24 1    
    46   22   90 1    
    47   23   91 1    
    48   23   92 1    
    49   23   93 1    
    50   24   25 am   BACKBONE|DICT|INTERRES
    51   24   94 1    
    52   25   26 2    
    53   25   27 1    
    54   27   28 1    
    55   27   29 1    
    56   27   95 1    
    57   28   96 1    
    58   28   97 1    
    59   28   98 1    
    60   29   30 am   BACKBONE|DICT|INTERRES
    61   29   99 1    
    62   30   31 2    
    63   30   32 1    
    64   32   33 1    
    65   32   34 1    
    66   32  100 1    
    67   33  101 1    
    68   33  102 1    
    69   33  103 1    
    70   34   35 am   BACKBONE|DICT|INTERRES
    71   34  104 1    
    72   35   36 2    
    73   37   38 2    
    74   37   39 am   BACKBONE|DICT|INTERRES
    75   39   40 1    
    76   39  105 1    
    77   40   41 1    
    78   40   42 1    
    79   40  106 1    
    80   41  107 1    
    81   41  108 1    
    82   41  109 1    
    83   42   43 2    
    84   42   44 am   BACKBONE|DICT|INTERRES
    85   44   45 1    
    86   44  110 1    
    87   45   46 1    
    88   45   47 1    
    89   45  111 1    
    90   46  112 1    
    91   46  113 1    
    92   46  114 1    
    93   47   48 2    
    94   47   49 am   BACKBONE|DICT|INTERRES
    95   49   50 1    
    96   49  115 1    
    97   50   51 1    
    98   50   52 1    
    99   50  116 1    
   100   51  117 1    
   101   51  118 1    
   102   51  119 1    
   103   52   53 2    
   104   52   54 am   BACKBONE|DICT|INTERRES
   105   54   55 1    
   106   54  120 1    
   107   55   56 1    
   108   55   57 1    
   109   55  121 1    
   110   56  122 1    
   111   56  123 1    
   112   56  124 1    
   113   57   58 2    
   114   57   59 am   BACKBONE|DICT|INTERRES
   115   59   60 1    
   116   59  125 1    
   117   60   61 1    
   118   60   62 1    
   119   60  126 1    
   120   61  127 1    
   121   61  128 1    
   122   61  129 1    
   123   62   63 2    
   124   62   64 am   BACKBONE|DICT|INTERRES
   125   64   65 1    
   126   64  130 1    
   127   65   66 1    
   128   65   69 1    
   129   65  131 1    
   130   66   67 am   BACKBONE|DICT|INTERRES
   131   66   68 2    
   132   67  132 1    
   133   67  133 1    
   134   69   70 1    
   135   69  134 1    
   136   69  135 1    
   137   70   71 1    
   138   71  136 1    
   139   71  137 1    
@<TRIPOS>SUBSTRUCTURE
     1 UNK         1 GROUP             0       ****    0 ROOT    
