@<TRIPOS>MOLECULE
3R137
137   139    1
SMALL
USER_CHARGES


@<TRIPOS>ATOM
      1 CA         24.9670   -4.3725    2.3587 C.3       0 UNK        -0.2020 
      2 C          26.2402   -4.9793    1.7744 C.2       0 UNK         0.4855 
      3 O          26.3688   -6.2015    1.7535 O.2       0 UNK        -0.5197 
      4 N          27.2101   -4.1858    1.2967 N.am      1 UNK        -0.4892 
      5 CA         27.2061   -2.7195    1.1856 C.3       1 UNK         0.0835 
      6 C6         28.6286   -2.1570    0.9214 C.3       12 UNK        -0.0855 
      7 S7         29.5417   -3.0071   -0.4162 S.3       12 UNK        -0.2931 
      8 C8         29.3437   -1.8303   -1.7876 C.3       12 UNK         0.0378 
      9 C9         29.8879   -2.4025   -3.0871 C.ar      12 UNK        -0.0802 
     10 C10        31.0498   -1.8801   -3.6601 C.ar      12 UNK        -0.0944 
     11 C11        31.5336   -2.3804   -4.8740 C.ar      12 UNK        -0.0787 
     12 C12        30.8572   -3.4356   -5.4987 C.ar      12 UNK        -0.0862 
     13 C13        29.7080   -3.9862   -4.9199 C.ar      12 UNK        -0.0733 
     14 C14        29.2214   -3.4531   -3.7224 C.ar      12 UNK        -0.0832 
     15 C15        29.0244   -5.1949   -5.5501 C.3       12 UNK         0.0240 
     16 S16        28.0157   -4.7820   -7.0096 S.3       12 UNK        -0.2522 
     17 C17        26.6966   -3.7435   -6.2901 C.3       12 UNK        -0.0967 
     18 CA         26.4587   -2.4340   -7.0792 C.3       5 UNK         0.0660 
     19 N          25.2812   -1.7103   -6.5987 N.am      5 UNK        -0.4015 
     20 C          24.6653   -0.7307   -7.2771 C.2       4 UNK         0.4946 
     21 O          24.9805   -0.3800   -8.4141 O.2       4 UNK        -0.5353 
     22 CA         23.5317    0.0117   -6.5484 C.3       4 UNK         0.0277 
     23 CB         22.2027   -0.7453   -6.6998 C.3       4 UNK        -0.1981 
     24 N          23.8187    0.2270   -5.1276 N.am      4 UNK        -0.4209 
     25 C          24.8089    1.0063   -4.6684 C.2       3 UNK         0.4942 
     26 O          25.5369    1.6815   -5.3941 O.2       3 UNK        -0.5208 
     27 CA         25.0625    0.9992   -3.1511 C.3       3 UNK         0.0250 
     28 CB         24.2486    2.1071   -2.4647 C.3       3 UNK        -0.1990 
     29 N          24.7856   -0.2870   -2.5012 N.am      3 UNK        -0.4232 
     30 C          25.3869   -1.4470   -2.7990 C.2       2 UNK         0.4993 
     31 O          26.2274   -1.5714   -3.6927 O.2       2 UNK        -0.5286 
     32 CA         24.9685   -2.6744   -1.9699 C.3       2 UNK         0.0209 
     33 CB         24.8052   -3.9211   -2.8574 C.3       2 UNK        -0.1931 
     34 N          25.9257   -2.9732   -0.9028 N.am      2 UNK        -0.4546 
     35 C          26.1836   -2.1919    0.1561 C.2       1 UNK         0.5154 
     36 O          25.6212   -1.1168    0.3650 O.2       1 UNK        -0.5181 
     37 C          27.6896   -1.5089   -7.0928 C.2       5 UNK         0.5014 
     38 O          28.4074   -1.4911   -8.0921 O.2       5 UNK        -0.5248 
     39 N          27.8753   -0.7152   -6.0263 N.am      6 UNK        -0.4434 
     40 CA         28.9386    0.2889   -5.9306 C.3       6 UNK         0.0363 
     41 CB         28.9099    0.9668   -4.5523 C.3       6 UNK        -0.1936 
     42 C          28.8736    1.3373   -7.0544 C.2       6 UNK         0.5081 
     43 O          29.8980    1.6306   -7.6710 O.2       6 UNK        -0.5248 
     44 N          27.6637    1.8437   -7.3319 N.am      7 UNK        -0.4718 
     45 CA         27.3753    2.7679   -8.4297 C.3       7 UNK         0.0273 
     46 CB         25.9313    3.2793   -8.3066 C.3       7 UNK        -0.1935 
     47 C          27.6174    2.1529   -9.8183 C.2       7 UNK         0.5018 
     48 O          28.1749    2.8315  -10.6811 O.2       7 UNK        -0.5186 
     49 N          27.2146    0.8871  -10.0074 N.am      8 UNK        -0.4240 
     50 CA         27.4362    0.1264  -11.2409 C.3       8 UNK         0.0235 
     51 CB         26.6040   -1.1658  -11.2167 C.3       8 UNK        -0.2000 
     52 C          28.9216   -0.1857  -11.4895 C.2       8 UNK         0.4941 
     53 O          29.3849   -0.0464  -12.6223 O.2       8 UNK        -0.5273 
     54 N          29.6405   -0.5886  -10.4324 N.am      9 UNK        -0.4262 
     55 CA         31.0808   -0.8520  -10.4532 C.3       9 UNK         0.0264 
     56 CB         31.4805   -1.5927   -9.1654 C.3       9 UNK        -0.1955 
     57 C          31.9259    0.4226  -10.6157 C.2       9 UNK         0.5031 
     58 O          33.0039    0.3517  -11.2076 O.2       9 UNK        -0.5390 
     59 N          31.4338    1.5458  -10.0695 N.am      10 UNK        -0.4204 
     60 CA         32.0881    2.8567   -9.9717 C.3       10 UNK         0.0237 
     61 CB         32.3123    3.4779  -11.3668 C.3       10 UNK        -0.1985 
     62 C          33.3653    2.8122   -9.1082 C.2       10 UNK         0.4970 
     63 O          34.3231    3.5396   -9.3792 O.2       10 UNK        -0.4914 
     64 N          33.3544    1.9431   -8.0910 N.am      11 UNK        -0.4285 
     65 CA         34.4385    1.7413   -7.1245 C.3       11 UNK         0.1007 
     66 C          34.5603    2.8948   -6.0885 C.2       11 UNK         0.5703 
     67 N          35.6989    3.0005   -5.4159 N.am      11 UNK        -0.7361 
     68 O          33.6396    3.6824   -5.8747 O.2       11 UNK        -0.4986 
     69 C69        34.3388    0.3407   -6.4605 C.3       12 UNK        -0.0947 
     70 S70        32.7224    0.0040   -5.6851 S.3       12 UNK        -0.2240 
     71 C71        32.8044   -1.8052   -5.4898 C.3       12 UNK         0.0194 
     72 H72        25.1870   -3.5609    3.0508 H         1 UNK         0.0906 
     73 H73        24.3190   -3.9979    1.5671 H         1 UNK         0.0906 
     74 H74        24.4087   -5.1272    2.9126 H         1 UNK         0.0906 
     75 H75        28.0445   -4.6212    0.9265 H         1 UNK         0.3140 
     76 H76        26.8924   -2.3184    2.1512 H         1 UNK         0.1085 
     77 H77        28.6006   -1.0813    0.7335 H         1 UNK         0.0836 
     78 H78        29.2235   -2.2695    1.8293 H         1 UNK         0.0836 
     79 H79        29.8474   -0.8961   -1.5342 H         1 UNK         0.0731 
     80 H80        28.2901   -1.5866   -1.9191 H         1 UNK         0.0731 
     81 H81        31.5742   -1.0719   -3.1691 H         1 UNK         0.1312 
     82 H82        31.2322   -3.8436   -6.4274 H         1 UNK         0.1406 
     83 H83        28.3314   -3.8651   -3.2673 H         1 UNK         0.1631 
     84 H84        28.3965   -5.7063   -4.8188 H         1 UNK         0.0717 
     85 H85        29.7850   -5.9177   -5.8486 H         1 UNK         0.0717 
     86 H86        25.7823   -4.3387   -6.2781 H         1 UNK         0.0934 
     87 H87        26.9208   -3.5238   -5.2482 H         1 UNK         0.0934 
     88 H88        26.2582   -2.7138   -8.1159 H         1 UNK         0.0739 
     89 H89        25.0159   -1.8774   -5.6387 H         1 UNK         0.3093 
     90 H90        23.4230    0.9907   -7.0205 H         1 UNK         0.0818 
     91 H91        21.3760   -0.1872   -6.2600 H         1 UNK         0.0819 
     92 H92        21.9618   -0.9005   -7.7526 H         1 UNK         0.0819 
     93 H93        22.2364   -1.7269   -6.2255 H         1 UNK         0.0819 
     94 H94        23.2546   -0.2775   -4.4594 H         1 UNK         0.3041 
     95 H95        26.1220    1.2135   -2.9991 H         1 UNK         0.0784 
     96 H96        24.4568    3.0793   -2.9143 H         1 UNK         0.0793 
     97 H97        23.1752    1.9323   -2.5479 H         1 UNK         0.0793 
     98 H98        24.4964    2.1832   -1.4056 H         1 UNK         0.0793 
     99 H99        24.1478   -0.2647   -1.7176 H         1 UNK         0.3024 
    100 H100       24.0005   -2.4656   -1.5089 H         1 UNK         0.1171 
    101 H101       24.1298   -3.7255   -3.6914 H         1 UNK         0.0786 
    102 H102       25.7566   -4.2494   -3.2762 H         1 UNK         0.0786 
    103 H103       24.3864   -4.7546   -2.2931 H         1 UNK         0.0786 
    104 H104       26.4447   -3.8355   -0.9850 H         1 UNK         0.2977 
    105 H105       27.2651   -0.8288   -5.2220 H         1 UNK         0.3127 
    106 H106       29.8813   -0.2488   -6.0312 H         1 UNK         0.0770 
    107 H107       28.0415    1.6143   -4.4352 H         1 UNK         0.0814 
    108 H108       29.7973    1.5852   -4.4119 H         1 UNK         0.0814 
    109 H109       28.8917    0.2358   -3.7464 H         1 UNK         0.0814 
    110 H110       26.8825    1.5919   -6.7300 H         1 UNK         0.2983 
    111 H111       28.0495    3.6210   -8.3269 H         1 UNK         0.0947 
    112 H112       25.6966    3.9856   -9.1040 H         1 UNK         0.0806 
    113 H113       25.7736    3.7950   -7.3590 H         1 UNK         0.0806 
    114 H114       25.2086    2.4647   -8.3664 H         1 UNK         0.0806 
    115 H115       26.7171    0.4136   -9.2600 H         1 UNK         0.3000 
    116 H116       27.0843    0.7376  -12.0747 H         1 UNK         0.0850 
    117 H117       26.7386   -1.7344  -12.1377 H         1 UNK         0.0810 
    118 H118       25.5398   -0.9495  -11.1213 H         1 UNK         0.0810 
    119 H119       26.8882   -1.8145  -10.3878 H         1 UNK         0.0810 
    120 H120       29.1604   -0.7542   -9.5469 H         1 UNK         0.3040 
    121 H121       31.2941   -1.5028  -11.3037 H         1 UNK         0.0766 
    122 H122       31.2480   -1.0062   -8.2755 H         1 UNK         0.0812 
    123 H123       32.5505   -1.8044   -9.1483 H         1 UNK         0.0812 
    124 H124       30.9580   -2.5455   -9.0777 H         1 UNK         0.0812 
    125 H125       30.5801    1.4629   -9.5237 H         1 UNK         0.3205 
    126 H126       31.3871    3.4985   -9.4360 H         1 UNK         0.0754 
    127 H127       32.6595    4.5085  -11.2842 H         1 UNK         0.0769 
    128 H128       31.3877    3.4933  -11.9443 H         1 UNK         0.0769 
    129 H129       33.0588    2.9291  -11.9415 H         1 UNK         0.0769 
    130 H130       32.5007    1.4383   -7.8978 H         1 UNK         0.2981 
    131 H131       35.3693    1.7540   -7.6953 H         1 UNK         0.0541 
    132 H132       36.4618    2.3613   -5.5759 H         1 UNK         0.3459 
    133 H133       35.7975    3.7369   -4.7347 H         1 UNK         0.3459 
    134 H134       35.1232    0.2016   -5.7146 H         1 UNK         0.0612 
    135 H135       34.5140   -0.4228   -7.2201 H         1 UNK         0.0612 
    136 H136       32.9955   -2.2556   -6.4648 H         1 UNK         0.0624 
    137 H137       33.6534   -2.0585   -4.8537 H         1 UNK         0.0624 
@<TRIPOS>BOND
     1    1    2 1    
     2    1   72 1    
     3    1   73 1    
     4    1   74 1    
     5    2    3 2    
     6    2    4 am   BACKBONE|DICT|INTERRES
     7    4    5 1    
     8    4   75 1    
     9    5    6 1    
    10    5   35 1    
    11    5   76 1    
    12    6    7 1    
    13    6   77 1    
    14    6   78 1    
    15    7    8 1    
    16    8    9 1    
    17    8   79 1    
    18    8   80 1    
    19    9   10 ar   
    20    9   14 ar   
    21   10   11 ar   
    22   10   81 1    
    23   11   12 ar   
    24   11   71 1    
    25   12   13 ar   
    26   12   82 1    
    27   13   14 ar   
    28   13   15 1    
    29   14   83 1    
    30   15   16 1    
    31   15   84 1    
    32   15   85 1    
    33   16   17 1    
    34   17   18 1    
    35   17   86 1    
    36   17   87 1    
    37   18   19 1    
    38   18   37 1    
    39   18   88 1    
    40   19   20 am   BACKBONE|DICT|INTERRES
    41   19   89 1    
    42   20   21 2    
    43   20   22 1    
    44   22   23 1    
    45   22   24 1    
    46   22   90 1    
    47   23   91 1    
    48   23   92 1    
    49   23   93 1    
    50   24   25 am   BACKBONE|DICT|INTERRES
    51   24   94 1    
    52   25   26 2    
    53   25   27 1    
    54   27   28 1    
    55   27   29 1    
    56   27   95 1    
    57   28   96 1    
    58   28   97 1    
    59   28   98 1    
    60   29   30 am   BACKBONE|DICT|INTERRES
    61   29   99 1    
    62   30   31 2    
    63   30   32 1    
    64   32   33 1    
    65   32   34 1    
    66   32  100 1    
    67   33  101 1    
    68   33  102 1    
    69   33  103 1    
    70   34   35 am   BACKBONE|DICT|INTERRES
    71   34  104 1    
    72   35   36 2    
    73   37   38 2    
    74   37   39 am   BACKBONE|DICT|INTERRES
    75   39   40 1    
    76   39  105 1    
    77   40   41 1    
    78   40   42 1    
    79   40  106 1    
    80   41  107 1    
    81   41  108 1    
    82   41  109 1    
    83   42   43 2    
    84   42   44 am   BACKBONE|DICT|INTERRES
    85   44   45 1    
    86   44  110 1    
    87   45   46 1    
    88   45   47 1    
    89   45  111 1    
    90   46  112 1    
    91   46  113 1    
    92   46  114 1    
    93   47   48 2    
    94   47   49 am   BACKBONE|DICT|INTERRES
    95   49   50 1    
    96   49  115 1    
    97   50   51 1    
    98   50   52 1    
    99   50  116 1    
   100   51  117 1    
   101   51  118 1    
   102   51  119 1    
   103   52   53 2    
   104   52   54 am   BACKBONE|DICT|INTERRES
   105   54   55 1    
   106   54  120 1    
   107   55   56 1    
   108   55   57 1    
   109   55  121 1    
   110   56  122 1    
   111   56  123 1    
   112   56  124 1    
   113   57   58 2    
   114   57   59 am   BACKBONE|DICT|INTERRES
   115   59   60 1    
   116   59  125 1    
   117   60   61 1    
   118   60   62 1    
   119   60  126 1    
   120   61  127 1    
   121   61  128 1    
   122   61  129 1    
   123   62   63 2    
   124   62   64 am   BACKBONE|DICT|INTERRES
   125   64   65 1    
   126   64  130 1    
   127   65   66 1    
   128   65   69 1    
   129   65  131 1    
   130   66   67 am   BACKBONE|DICT|INTERRES
   131   66   68 2    
   132   67  132 1    
   133   67  133 1    
   134   69   70 1    
   135   69  134 1    
   136   69  135 1    
   137   70   71 1    
   138   71  136 1    
   139   71  137 1    
@<TRIPOS>SUBSTRUCTURE
     1 UNK         1 GROUP             0       ****    0 ROOT    
