@<TRIPOS>MOLECULE
3R137
137   139    1
SMALL
USER_CHARGES


@<TRIPOS>ATOM
      1 CA         29.5583    0.9070    0.9390 C.3       0 UNK        -0.2020 
      2 C          29.0494   -0.1164   -0.0649 C.2       0 UNK         0.4855 
      3 O          28.5714    0.2628   -1.1328 O.2       0 UNK        -0.5197 
      4 N          29.1561   -1.4093    0.2667 N.am      1 UNK        -0.4892 
      5 CA         28.6820   -2.5272   -0.5556 C.3       1 UNK         0.0835 
      6 C6         29.3100   -3.8604   -0.0780 C.3       12 UNK        -0.0855 
      7 S7         29.3220   -5.1677   -1.3523 S.3       12 UNK        -0.2931 
      8 C8         30.9521   -4.9345   -2.1378 C.3       12 UNK         0.0378 
      9 C9         30.8683   -3.9330   -3.2790 C.ar      12 UNK        -0.0802 
     10 C10        31.1562   -2.5814   -3.0655 C.ar      12 UNK        -0.0944 
     11 C11        31.0072   -1.6513   -4.0991 C.ar      12 UNK        -0.0787 
     12 C12        30.5877   -2.0907   -5.3591 C.ar      12 UNK        -0.0862 
     13 C13        30.3284   -3.4441   -5.5942 C.ar      12 UNK        -0.0733 
     14 C14        30.4739   -4.3608   -4.5499 C.ar      12 UNK        -0.0832 
     15 C15        29.8887   -3.9110   -6.9765 C.3       12 UNK         0.0240 
     16 S16        28.2548   -4.7193   -6.9921 S.3       12 UNK        -0.2522 
     17 C17        27.1734   -3.4971   -6.1790 C.3       12 UNK        -0.0967 
     18 CA         26.6432   -2.3964   -7.1363 C.3       5 UNK         0.0660 
     19 N          25.2632   -2.0261   -6.8188 N.am      5 UNK        -0.4015 
     20 C          24.4456   -1.3360   -7.6254 C.2       4 UNK         0.4946 
     21 O          24.7424   -0.9827   -8.7664 O.2       4 UNK        -0.5353 
     22 CA         23.0698   -0.9547   -7.0507 C.3       4 UNK         0.0277 
     23 CB         22.0435   -2.0651   -7.3268 C.3       4 UNK        -0.1981 
     24 N          23.1073   -0.6673   -5.6129 N.am      4 UNK        -0.4209 
     25 C          23.7352    0.3882   -5.0755 C.2       3 UNK         0.4942 
     26 O          24.3250    1.2420   -5.7357 O.2       3 UNK        -0.5208 
     27 CA         23.7486    0.4864   -3.5413 C.3       3 UNK         0.0250 
     28 CB         22.4474    1.1257   -3.0305 C.3       3 UNK        -0.1990 
     29 N          23.9797   -0.7871   -2.8470 N.am      3 UNK        -0.4232 
     30 C          25.0419   -1.5834   -3.0312 C.2       2 UNK         0.4993 
     31 O          25.8882   -1.4124   -3.9132 O.2       2 UNK        -0.5286 
     32 CA         25.1766   -2.7910   -2.0966 C.3       2 UNK         0.0209 
     33 CB         24.6830   -4.0703   -2.7907 C.3       2 UNK        -0.1931 
     34 N          26.5912   -2.9380   -1.7621 N.am      2 UNK        -0.4546 
     35 C          27.1400   -2.5715   -0.5989 C.2       1 UNK         0.5154 
     36 O          26.4880   -2.2683    0.4048 O.2       1 UNK        -0.5181 
     37 C          27.5416   -1.1464   -7.1209 C.2       5 UNK         0.5014 
     38 O          28.3116   -0.9298   -8.0585 O.2       5 UNK        -0.5248 
     39 N          27.4000   -0.3279   -6.0681 N.am      6 UNK        -0.4434 
     40 CA         28.1052    0.9401   -5.8909 C.3       6 UNK         0.0363 
     41 CB         27.7874    1.5239   -4.5073 C.3       6 UNK        -0.1936 
     42 C          27.8064    1.9522   -7.0047 C.2       6 UNK         0.5081 
     43 O          28.7440    2.5314   -7.5499 O.2       6 UNK        -0.5248 
     44 N          26.5251    2.1056   -7.3651 N.am      7 UNK        -0.4718 
     45 CA         26.0738    2.9580   -8.4691 C.3       7 UNK         0.0273 
     46 CB         24.5376    2.9985   -8.4880 C.3       7 UNK        -0.1935 
     47 C          26.6147    2.5258   -9.8439 C.2       7 UNK         0.5018 
     48 O          26.8410    3.3861  -10.6959 O.2       7 UNK        -0.5186 
     49 N          26.8095    1.2142  -10.0348 N.am      8 UNK        -0.4240 
     50 CA         27.3601    0.6350  -11.2562 C.3       8 UNK         0.0235 
     51 CB         26.9153   -0.8326  -11.3801 C.3       8 UNK        -0.2000 
     52 C          28.8906    0.7526  -11.3230 C.2       8 UNK         0.4941 
     53 O          29.4083    1.2601  -12.3191 O.2       8 UNK        -0.5273 
     54 N          29.5861    0.2415  -10.2972 N.am      9 UNK        -0.4262 
     55 CA         31.0280   -0.0190  -10.3520 C.3       9 UNK         0.0264 
     56 CB         31.2861   -1.4374   -9.8173 C.3       9 UNK        -0.1955 
     57 C          31.8943    0.9757   -9.5675 C.2       9 UNK         0.5031 
     58 O          33.1067    0.9784   -9.7858 O.2       9 UNK        -0.5390 
     59 N          31.3150    1.7395   -8.6262 N.am      10 UNK        -0.4204 
     60 CA         32.0158    2.6221   -7.6731 C.3       10 UNK         0.0237 
     61 CB         32.5826    3.8609   -8.3989 C.3       10 UNK        -0.1985 
     62 C          33.0776    1.8928   -6.8156 C.2       10 UNK         0.4970 
     63 O          34.0915    2.4900   -6.4513 O.2       10 UNK        -0.4914 
     64 N          32.8227    0.6058   -6.5404 N.am      11 UNK        -0.4285 
     65 CA         33.7204   -0.3696   -5.8971 C.3       11 UNK         0.1007 
     66 C          34.9485   -0.7756   -6.7739 C.2       11 UNK         0.5703 
     67 N          35.0053   -0.4407   -8.0585 N.am      11 UNK        -0.7361 
     68 O          35.8597   -1.4451   -6.2926 O.2       11 UNK        -0.4986 
     69 C69        34.1363    0.0008   -4.4394 C.3       12 UNK        -0.0947 
     70 S70        32.8577    0.2518   -3.1470 S.3       12 UNK        -0.2240 
     71 C71        31.2222   -0.1646   -3.8391 C.3       12 UNK         0.0194 
     72 H72        28.7486    1.5713    1.2397 H         1 UNK         0.0906 
     73 H73        29.9616    0.4358    1.8351 H         1 UNK         0.0906 
     74 H74        30.3460    1.5114    0.4898 H         1 UNK         0.0906 
     75 H75        29.5183   -1.6568    1.1765 H         1 UNK         0.3140 
     76 H76        29.0183   -2.3254   -1.5723 H         1 UNK         0.1085 
     77 H77        30.3402   -3.6974    0.2424 H         1 UNK         0.0836 
     78 H78        28.7912   -4.2381    0.8055 H         1 UNK         0.0836 
     79 H79        31.6957   -4.6249   -1.4020 H         1 UNK         0.0731 
     80 H80        31.2946   -5.8964   -2.5225 H         1 UNK         0.0731 
     81 H81        31.4594   -2.2442   -2.0835 H         1 UNK         0.1312 
     82 H82        30.4524   -1.3779   -6.1594 H         1 UNK         0.1406 
     83 H83        30.2531   -5.4059   -4.7218 H         1 UNK         0.1631 
     84 H84        30.6296   -4.6107   -7.3653 H         1 UNK         0.0717 
     85 H85        29.8605   -3.0803   -7.6787 H         1 UNK         0.0717 
     86 H86        26.3358   -4.0806   -5.7956 H         1 UNK         0.0934 
     87 H87        27.6540   -3.0858   -5.2891 H         1 UNK         0.0934 
     88 H88        26.6400   -2.7869   -8.1566 H         1 UNK         0.0739 
     89 H89        24.9641   -2.1991   -5.8697 H         1 UNK         0.3093 
     90 H90        22.7400   -0.0496   -7.5658 H         1 UNK         0.0818 
     91 H91        21.0450   -1.7725   -7.0014 H         1 UNK         0.0819 
     92 H92        21.9831   -2.2820   -8.3944 H         1 UNK         0.0819 
     93 H93        22.3042   -2.9950   -6.8199 H         1 UNK         0.0819 
     94 H94        22.6412   -1.3175   -4.9968 H         1 UNK         0.3041 
     95 H95        24.5749    1.1476   -3.2721 H         1 UNK         0.0784 
     96 H96        22.2635    2.0824   -3.5220 H         1 UNK         0.0793 
     97 H97        21.5813    0.4904   -3.2197 H         1 UNK         0.0793 
     98 H98        22.4942    1.3201   -1.9588 H         1 UNK         0.0793 
     99 H99        23.3223   -1.0196   -2.1161 H         1 UNK         0.3024 
    100 H100       24.5803   -2.6234   -1.1967 H         1 UNK         0.1171 
    101 H101       23.6317   -3.9856   -3.0692 H         1 UNK         0.0786 
    102 H102       24.7745   -4.9341   -2.1320 H         1 UNK         0.0786 
    103 H103       25.2469   -4.2852   -3.6981 H         1 UNK         0.0786 
    104 H104       27.2021   -3.1308   -2.5437 H         1 UNK         0.2977 
    105 H105       26.7707   -0.6092   -5.3174 H         1 UNK         0.3127 
    106 H106       29.1715    0.7238   -5.9351 H         1 UNK         0.0770 
    107 H107       26.7316    1.7758   -4.4075 H         1 UNK         0.0814 
    108 H108       28.3607    2.4337   -4.3254 H         1 UNK         0.0814 
    109 H109       28.0361    0.8180   -3.7150 H         1 UNK         0.0814 
    110 H110       25.8011    1.6297   -6.8296 H         1 UNK         0.2983 
    111 H111       26.4423    3.9682   -8.2779 H         1 UNK         0.0947 
    112 H112       24.1120    2.0050   -8.6361 H         1 UNK         0.0806 
    113 H113       24.1401    3.3963   -7.5541 H         1 UNK         0.0806 
    114 H114       24.1715    3.6362   -9.2938 H         1 UNK         0.0806 
    115 H115       26.5805    0.5750   -9.2846 H         1 UNK         0.3000 
    116 H116       26.9492    1.1754  -12.1121 H         1 UNK         0.0850 
    117 H117       27.3179   -1.2883  -12.2856 H         1 UNK         0.0810 
    118 H118       25.8292   -0.9113  -11.4330 H         1 UNK         0.0810 
    119 H119       27.2486   -1.4352  -10.5346 H         1 UNK         0.0810 
    120 H120       29.0787   -0.1538   -9.5051 H         1 UNK         0.3040 
    121 H121       31.3731    0.0070  -11.3880 H         1 UNK         0.0766 
    122 H122       32.3317   -1.7212   -9.9462 H         1 UNK         0.0812 
    123 H123       30.6823   -2.1795  -10.3401 H         1 UNK         0.0812 
    124 H124       31.0614   -1.5062   -8.7540 H         1 UNK         0.0812 
    125 H125       30.3040    1.7191   -8.5215 H         1 UNK         0.3205 
    126 H126       31.2633    2.9753   -6.9674 H         1 UNK         0.0754 
    127 H127       32.9833    4.5842   -7.6877 H         1 UNK         0.0769 
    128 H128       31.8087    4.3697   -8.9738 H         1 UNK         0.0769 
    129 H129       33.3894    3.5957   -9.0830 H         1 UNK         0.0769 
    130 H130       31.9763    0.2179   -6.9240 H         1 UNK         0.2981 
    131 H131       33.1491   -1.2932   -5.8367 H         1 UNK         0.0541 
    132 H132       34.2783    0.1104   -8.5038 H         1 UNK         0.3459 
    133 H133       35.8051   -0.7298   -8.5981 H         1 UNK         0.3459 
    134 H134       34.7596    0.8957   -4.4511 H         1 UNK         0.0612 
    135 H135       34.7797   -0.7844   -4.0391 H         1 UNK         0.0612 
    136 H136       31.0354    0.4375   -4.7236 H         1 UNK         0.0624 
    137 H137       30.4712    0.1529   -3.1153 H         1 UNK         0.0624 
@<TRIPOS>BOND
     1    1    2 1    
     2    1   72 1    
     3    1   73 1    
     4    1   74 1    
     5    2    3 2    
     6    2    4 am   BACKBONE|DICT|INTERRES
     7    4    5 1    
     8    4   75 1    
     9    5    6 1    
    10    5   35 1    
    11    5   76 1    
    12    6    7 1    
    13    6   77 1    
    14    6   78 1    
    15    7    8 1    
    16    8    9 1    
    17    8   79 1    
    18    8   80 1    
    19    9   10 ar   
    20    9   14 ar   
    21   10   11 ar   
    22   10   81 1    
    23   11   12 ar   
    24   11   71 1    
    25   12   13 ar   
    26   12   82 1    
    27   13   14 ar   
    28   13   15 1    
    29   14   83 1    
    30   15   16 1    
    31   15   84 1    
    32   15   85 1    
    33   16   17 1    
    34   17   18 1    
    35   17   86 1    
    36   17   87 1    
    37   18   19 1    
    38   18   37 1    
    39   18   88 1    
    40   19   20 am   BACKBONE|DICT|INTERRES
    41   19   89 1    
    42   20   21 2    
    43   20   22 1    
    44   22   23 1    
    45   22   24 1    
    46   22   90 1    
    47   23   91 1    
    48   23   92 1    
    49   23   93 1    
    50   24   25 am   BACKBONE|DICT|INTERRES
    51   24   94 1    
    52   25   26 2    
    53   25   27 1    
    54   27   28 1    
    55   27   29 1    
    56   27   95 1    
    57   28   96 1    
    58   28   97 1    
    59   28   98 1    
    60   29   30 am   BACKBONE|DICT|INTERRES
    61   29   99 1    
    62   30   31 2    
    63   30   32 1    
    64   32   33 1    
    65   32   34 1    
    66   32  100 1    
    67   33  101 1    
    68   33  102 1    
    69   33  103 1    
    70   34   35 am   BACKBONE|DICT|INTERRES
    71   34  104 1    
    72   35   36 2    
    73   37   38 2    
    74   37   39 am   BACKBONE|DICT|INTERRES
    75   39   40 1    
    76   39  105 1    
    77   40   41 1    
    78   40   42 1    
    79   40  106 1    
    80   41  107 1    
    81   41  108 1    
    82   41  109 1    
    83   42   43 2    
    84   42   44 am   BACKBONE|DICT|INTERRES
    85   44   45 1    
    86   44  110 1    
    87   45   46 1    
    88   45   47 1    
    89   45  111 1    
    90   46  112 1    
    91   46  113 1    
    92   46  114 1    
    93   47   48 2    
    94   47   49 am   BACKBONE|DICT|INTERRES
    95   49   50 1    
    96   49  115 1    
    97   50   51 1    
    98   50   52 1    
    99   50  116 1    
   100   51  117 1    
   101   51  118 1    
   102   51  119 1    
   103   52   53 2    
   104   52   54 am   BACKBONE|DICT|INTERRES
   105   54   55 1    
   106   54  120 1    
   107   55   56 1    
   108   55   57 1    
   109   55  121 1    
   110   56  122 1    
   111   56  123 1    
   112   56  124 1    
   113   57   58 2    
   114   57   59 am   BACKBONE|DICT|INTERRES
   115   59   60 1    
   116   59  125 1    
   117   60   61 1    
   118   60   62 1    
   119   60  126 1    
   120   61  127 1    
   121   61  128 1    
   122   61  129 1    
   123   62   63 2    
   124   62   64 am   BACKBONE|DICT|INTERRES
   125   64   65 1    
   126   64  130 1    
   127   65   66 1    
   128   65   69 1    
   129   65  131 1    
   130   66   67 am   BACKBONE|DICT|INTERRES
   131   66   68 2    
   132   67  132 1    
   133   67  133 1    
   134   69   70 1    
   135   69  134 1    
   136   69  135 1    
   137   70   71 1    
   138   71  136 1    
   139   71  137 1    
@<TRIPOS>SUBSTRUCTURE
     1 UNK         1 GROUP             0       ****    0 ROOT    
