@<TRIPOS>MOLECULE
3R137
137   139    1
SMALL
USER_CHARGES


@<TRIPOS>ATOM
      1 CA         26.3765   -6.4366    1.7784 C.3       0 UNK        -0.2020 
      2 C          26.1996   -4.9258    1.7934 C.2       0 UNK         0.4855 
      3 O          25.1736   -4.4336    2.2633 O.2       0 UNK        -0.5197 
      4 N          27.1933   -4.1860    1.2847 N.am      1 UNK        -0.4892 
      5 CA         27.1915   -2.7206    1.1808 C.3       1 UNK         0.0835 
      6 C6         28.6151   -2.1529    0.9349 C.3       12 UNK        -0.0855 
      7 S7         29.5430   -2.9974   -0.3958 S.3       12 UNK        -0.2931 
      8 C8         29.3410   -1.8239   -1.7692 C.3       12 UNK         0.0378 
      9 C9         29.8945   -2.3927   -3.0660 C.ar      12 UNK        -0.0802 
     10 C10        31.0528   -1.8598   -3.6363 C.ar      12 UNK        -0.0944 
     11 C11        31.5427   -2.3535   -4.8505 C.ar      12 UNK        -0.0787 
     12 C12        30.8774   -3.4147   -5.4770 C.ar      12 UNK        -0.0862 
     13 C13        29.7323   -3.9764   -4.9004 C.ar      12 UNK        -0.0733 
     14 C14        29.2389   -3.4489   -3.7031 C.ar      12 UNK        -0.0832 
     15 C15        29.0589   -5.1894   -5.5333 C.3       12 UNK         0.0240 
     16 S16        28.0493   -4.7829   -6.9942 S.3       12 UNK        -0.2522 
     17 C17        26.7258   -3.7462   -6.2797 C.3       12 UNK        -0.0967 
     18 CA         26.4851   -2.4412   -7.0755 C.3       5 UNK         0.0660 
     19 N          25.3007   -1.7214   -6.6062 N.am      5 UNK        -0.4015 
     20 C          24.6869   -0.7456   -7.2921 C.2       4 UNK         0.4946 
     21 O          25.0102   -0.3965   -8.4274 O.2       4 UNK        -0.5353 
     22 CA         23.5462   -0.0042   -6.5738 C.3       4 UNK         0.0277 
     23 CB         22.2215   -0.7682   -6.7271 C.3       4 UNK        -0.1981 
     24 N          23.8255    0.2210   -5.1531 N.am      4 UNK        -0.4209 
     25 C          24.8117    1.0052   -4.6936 C.2       3 UNK         0.4942 
     26 O          25.5417    1.6780   -5.4196 O.2       3 UNK        -0.5208 
     27 CA         25.0578    1.0068   -3.1749 C.3       3 UNK         0.0250 
     28 CB         24.2387    2.1171   -2.4987 C.3       3 UNK        -0.1990 
     29 N          24.7787   -0.2766   -2.5204 N.am      3 UNK        -0.4232 
     30 C          25.3860   -1.4364   -2.8072 C.2       2 UNK         0.4993 
     31 O          26.2359   -1.5622   -3.6918 O.2       2 UNK        -0.5286 
     32 CA         24.9593   -2.6623   -1.9804 C.3       2 UNK         0.0209 
     33 CB         24.7946   -3.9074   -2.8700 C.3       2 UNK        -0.1931 
     34 N          25.9101   -2.9668   -0.9095 N.am      2 UNK        -0.4546 
     35 C          26.1711   -2.1876    0.1509 C.2       1 UNK         0.5154 
     36 O          25.6255   -1.1015    0.3513 O.2       1 UNK        -0.5181 
     37 C          27.7115   -1.5103   -7.0858 C.2       5 UNK         0.5014 
     38 O          28.4365   -1.4953   -8.0797 O.2       5 UNK        -0.5248 
     39 N          27.8864   -0.7099   -6.0226 N.am      6 UNK        -0.4434 
     40 CA         28.9490    0.2947   -5.9236 C.3       6 UNK         0.0363 
     41 CB         28.9125    0.9757   -4.5471 C.3       6 UNK        -0.1936 
     42 C          28.8942    1.3409   -7.0500 C.2       6 UNK         0.5081 
     43 O          29.9279    1.6489   -7.6447 O.2       6 UNK        -0.5248 
     44 N          27.6836    1.8315   -7.3511 N.am      7 UNK        -0.4718 
     45 CA         27.4027    2.7445   -8.4596 C.3       7 UNK         0.0273 
     46 CB         25.9568    3.2543   -8.3536 C.3       7 UNK        -0.1935 
     47 C          27.6578    2.1134   -9.8384 C.2       7 UNK         0.5018 
     48 O          28.2370    2.7769  -10.6985 O.2       7 UNK        -0.5186 
     49 N          27.2431    0.8504  -10.0220 N.am      8 UNK        -0.4240 
     50 CA         27.4668    0.0771  -11.2478 C.3       8 UNK         0.0235 
     51 CB         26.6314   -1.2127  -11.2142 C.3       8 UNK        -0.2000 
     52 C          28.9517   -0.2414  -11.4908 C.2       8 UNK         0.4941 
     53 O          29.4178   -0.1153  -12.6240 O.2       8 UNK        -0.5273 
     54 N          29.6685   -0.6311  -10.4273 N.am      9 UNK        -0.4262 
     55 CA         31.1110   -0.8838  -10.4382 C.3       9 UNK         0.0264 
     56 CB         31.5075   -1.6125   -9.1427 C.3       9 UNK        -0.1955 
     57 C          31.9472    0.3968  -10.6018 C.2       9 UNK         0.5031 
     58 O          33.0487    0.3237  -11.1486 O.2       9 UNK        -0.5390 
     59 N          31.4199    1.5282  -10.1079 N.am      10 UNK        -0.4204 
     60 CA         32.0489    2.8519  -10.0271 C.3       10 UNK         0.0237 
     61 CB         32.3081    3.4360  -11.4321 C.3       10 UNK        -0.1985 
     62 C          33.2985    2.8495   -9.1242 C.2       10 UNK         0.4970 
     63 O          34.2674    3.5578   -9.4041 O.2       10 UNK        -0.4914 
     64 N          33.2503    2.0396   -8.0596 N.am      11 UNK        -0.4285 
     65 CA         34.3330    1.8463   -7.0846 C.3       11 UNK         0.1007 
     66 C          34.4512    2.9658   -6.0089 C.2       11 UNK         0.5703 
     67 N          33.5160    3.9045   -5.9176 N.am      11 UNK        -0.7361 
     68 O          35.4216    2.9931   -5.2553 O.2       11 UNK        -0.4986 
     69 C69        34.2796    0.4242   -6.4638 C.3       12 UNK        -0.0947 
     70 S70        32.6872    0.0485   -5.6602 S.3       12 UNK        -0.2240 
     71 C71        32.8042   -1.7587   -5.4673 C.3       12 UNK         0.0194 
     72 H72        27.3297   -6.7319    1.3402 H         1 UNK         0.0906 
     73 H73        26.3345   -6.8293    2.7940 H         1 UNK         0.0906 
     74 H74        25.5788   -6.9018    1.1998 H         1 UNK         0.0906 
     75 H75        28.0204   -4.6366    0.9159 H         1 UNK         0.3140 
     76 H76        26.8581   -2.3349    2.1473 H         1 UNK         0.1085 
     77 H77        28.5855   -1.0770    0.7497 H         1 UNK         0.0836 
     78 H78        29.1997   -2.2668    1.8491 H         1 UNK         0.0836 
     79 H79        28.2860   -1.5888   -1.9051 H         1 UNK         0.0731 
     80 H80        29.8359   -0.8853   -1.5148 H         1 UNK         0.0731 
     81 H81        31.5679   -1.0461   -3.1445 H         1 UNK         0.1312 
     82 H82        31.2565   -3.8170   -6.4065 H         1 UNK         0.1406 
     83 H83        28.3513   -3.8687   -3.2505 H         1 UNK         0.1631 
     84 H84        28.4334   -5.7063   -4.8038 H         1 UNK         0.0717 
     85 H85        29.8254   -5.9062   -5.8312 H         1 UNK         0.0717 
     86 H86        25.8135   -4.3445   -6.2665 H         1 UNK         0.0934 
     87 H87        26.9478   -3.5209   -5.2385 H         1 UNK         0.0934 
     88 H88        26.2921   -2.7265   -8.1122 H         1 UNK         0.0739 
     89 H89        25.0277   -1.8877   -5.6483 H         1 UNK         0.3093 
     90 H90        23.4354    0.9715   -7.0522 H         1 UNK         0.0818 
     91 H91        21.3900   -0.2112   -6.2949 H         1 UNK         0.0819 
     92 H92        21.9865   -0.9309   -7.7801 H         1 UNK         0.0819 
     93 H93        22.2572   -1.7467   -6.2466 H         1 UNK         0.0819 
     94 H94        23.2593   -0.2807   -4.4846 H         1 UNK         0.3041 
     95 H95        26.1161    1.2233   -3.0184 H         1 UNK         0.0784 
     96 H96        24.4481    3.0873   -2.9520 H         1 UNK         0.0793 
     97 H97        23.1659    1.9406   -2.5870 H         1 UNK         0.0793 
     98 H98        24.4803    2.1988   -1.4386 H         1 UNK         0.0793 
     99 H99        24.1316   -0.2528   -1.7445 H         1 UNK         0.3024 
    100 H100       23.9909   -2.4501   -1.5219 H         1 UNK         0.1171 
    101 H101       25.7464   -4.2390   -3.2853 H         1 UNK         0.0786 
    102 H102       24.1233   -3.7082   -3.7064 H         1 UNK         0.0786 
    103 H103       24.3700   -4.7398   -2.3083 H         1 UNK         0.0786 
    104 H104       26.4158   -3.8369   -0.9834 H         1 UNK         0.2977 
    105 H105       27.2717   -0.8216   -5.2215 H         1 UNK         0.3127 
    106 H106       29.8903   -0.2455   -6.0178 H         1 UNK         0.0770 
    107 H107       28.8884    0.2464   -3.7397 H         1 UNK         0.0814 
    108 H108       28.0440    1.6243   -4.4374 H         1 UNK         0.0814 
    109 H109       29.7996    1.5934   -4.4024 H         1 UNK         0.0814 
    110 H110       26.8956    1.5721   -6.7619 H         1 UNK         0.2983 
    111 H111       28.0743    3.6001   -8.3605 H         1 UNK         0.0947 
    112 H112       25.7276    3.9524   -9.1598 H         1 UNK         0.0806 
    113 H113       25.7903    3.7787   -7.4124 H         1 UNK         0.0806 
    114 H114       25.2358    2.4380   -8.4115 H         1 UNK         0.0806 
    115 H115       26.7295    0.3893   -9.2774 H         1 UNK         0.3000 
    116 H116       27.1187    0.6819  -12.0879 H         1 UNK         0.0850 
    117 H117       26.7671   -1.7900  -12.1296 H         1 UNK         0.0810 
    118 H118       25.5674   -0.9931  -11.1238 H         1 UNK         0.0810 
    119 H119       26.9120   -1.8543  -10.3786 H         1 UNK         0.0810 
    120 H120       29.1860   -0.7887   -9.5413 H         1 UNK         0.3040 
    121 H121       31.3353   -1.5376  -11.2835 H         1 UNK         0.0766 
    122 H122       32.5780   -1.8202   -9.1192 H         1 UNK         0.0812 
    123 H123       30.9878   -2.5663   -9.0492 H         1 UNK         0.0812 
    124 H124       31.2692   -1.0189   -8.2590 H         1 UNK         0.0812 
    125 H125       30.5437    1.4480   -9.6014 H         1 UNK         0.3205 
    126 H126       31.3212    3.4973   -9.5330 H         1 UNK         0.0754 
    127 H127       32.6400    4.4730  -11.3690 H         1 UNK         0.0769 
    128 H128       31.4015    3.4226  -12.0374 H         1 UNK         0.0769 
    129 H129       33.0784    2.8807  -11.9680 H         1 UNK         0.0769 
    130 H130       32.3954    1.5329   -7.8719 H         1 UNK         0.2981 
    131 H131       35.2716    1.8980   -7.6397 H         1 UNK         0.0541 
    132 H132       32.7144    3.8853   -6.5266 H         1 UNK         0.3459 
    133 H133       33.6079    4.6279   -5.2223 H         1 UNK         0.3459 
    134 H134       35.0846    0.2798   -5.7411 H         1 UNK         0.0612 
    135 H135       34.4472   -0.3146   -7.2491 H         1 UNK         0.0612 
    136 H136       33.0017   -2.2052   -6.4428 H         1 UNK         0.0624 
    137 H137       33.6583   -1.9970   -4.8322 H         1 UNK         0.0624 
@<TRIPOS>BOND
     1    1    2 1    
     2    1   72 1    
     3    1   73 1    
     4    1   74 1    
     5    2    3 2    
     6    2    4 am   BACKBONE|DICT|INTERRES
     7    4    5 1    
     8    4   75 1    
     9    5    6 1    
    10    5   35 1    
    11    5   76 1    
    12    6    7 1    
    13    6   77 1    
    14    6   78 1    
    15    7    8 1    
    16    8    9 1    
    17    8   79 1    
    18    8   80 1    
    19    9   10 ar   
    20    9   14 ar   
    21   10   11 ar   
    22   10   81 1    
    23   11   12 ar   
    24   11   71 1    
    25   12   13 ar   
    26   12   82 1    
    27   13   14 ar   
    28   13   15 1    
    29   14   83 1    
    30   15   16 1    
    31   15   84 1    
    32   15   85 1    
    33   16   17 1    
    34   17   18 1    
    35   17   86 1    
    36   17   87 1    
    37   18   19 1    
    38   18   37 1    
    39   18   88 1    
    40   19   20 am   BACKBONE|DICT|INTERRES
    41   19   89 1    
    42   20   21 2    
    43   20   22 1    
    44   22   23 1    
    45   22   24 1    
    46   22   90 1    
    47   23   91 1    
    48   23   92 1    
    49   23   93 1    
    50   24   25 am   BACKBONE|DICT|INTERRES
    51   24   94 1    
    52   25   26 2    
    53   25   27 1    
    54   27   28 1    
    55   27   29 1    
    56   27   95 1    
    57   28   96 1    
    58   28   97 1    
    59   28   98 1    
    60   29   30 am   BACKBONE|DICT|INTERRES
    61   29   99 1    
    62   30   31 2    
    63   30   32 1    
    64   32   33 1    
    65   32   34 1    
    66   32  100 1    
    67   33  101 1    
    68   33  102 1    
    69   33  103 1    
    70   34   35 am   BACKBONE|DICT|INTERRES
    71   34  104 1    
    72   35   36 2    
    73   37   38 2    
    74   37   39 am   BACKBONE|DICT|INTERRES
    75   39   40 1    
    76   39  105 1    
    77   40   41 1    
    78   40   42 1    
    79   40  106 1    
    80   41  107 1    
    81   41  108 1    
    82   41  109 1    
    83   42   43 2    
    84   42   44 am   BACKBONE|DICT|INTERRES
    85   44   45 1    
    86   44  110 1    
    87   45   46 1    
    88   45   47 1    
    89   45  111 1    
    90   46  112 1    
    91   46  113 1    
    92   46  114 1    
    93   47   48 2    
    94   47   49 am   BACKBONE|DICT|INTERRES
    95   49   50 1    
    96   49  115 1    
    97   50   51 1    
    98   50   52 1    
    99   50  116 1    
   100   51  117 1    
   101   51  118 1    
   102   51  119 1    
   103   52   53 2    
   104   52   54 am   BACKBONE|DICT|INTERRES
   105   54   55 1    
   106   54  120 1    
   107   55   56 1    
   108   55   57 1    
   109   55  121 1    
   110   56  122 1    
   111   56  123 1    
   112   56  124 1    
   113   57   58 2    
   114   57   59 am   BACKBONE|DICT|INTERRES
   115   59   60 1    
   116   59  125 1    
   117   60   61 1    
   118   60   62 1    
   119   60  126 1    
   120   61  127 1    
   121   61  128 1    
   122   61  129 1    
   123   62   63 2    
   124   62   64 am   BACKBONE|DICT|INTERRES
   125   64   65 1    
   126   64  130 1    
   127   65   66 1    
   128   65   69 1    
   129   65  131 1    
   130   66   67 am   BACKBONE|DICT|INTERRES
   131   66   68 2    
   132   67  132 1    
   133   67  133 1    
   134   69   70 1    
   135   69  134 1    
   136   69  135 1    
   137   70   71 1    
   138   71  136 1    
   139   71  137 1    
@<TRIPOS>SUBSTRUCTURE
     1 UNK         1 GROUP             0       ****    0 ROOT    
