@<TRIPOS>MOLECULE
3R137
137   139    1
SMALL
USER_CHARGES


@<TRIPOS>ATOM
      1 CA         23.5324   -3.7281    0.0025 C.3       0 UNK        -0.2020 
      2 C          23.8957   -3.0074   -1.2918 C.2       0 UNK         0.4855 
      3 O          23.0345   -2.8473   -2.1530 O.2       0 UNK        -0.5197 
      4 N          25.1409   -2.5541   -1.4763 N.am      1 UNK        -0.4892 
      5 CA         26.2666   -2.6290   -0.5371 C.3       1 UNK         0.0835 
      6 C6         27.2324   -3.7985   -0.8683 C.3       12 UNK        -0.0855 
      7 S7         27.8177   -3.8403   -2.6003 S.3       12 UNK        -0.2931 
      8 C8         29.6206   -3.9218   -2.3432 C.3       12 UNK         0.0378 
      9 C9         30.3844   -3.9303   -3.6600 C.ar      12 UNK        -0.0802 
     10 C10        31.4156   -3.0143   -3.8872 C.ar      12 UNK        -0.0944 
     11 C11        32.1178   -3.0190   -5.0968 C.ar      12 UNK        -0.0787 
     12 C12        31.7646   -3.9366   -6.0938 C.ar      12 UNK        -0.0862 
     13 C13        30.7273   -4.8502   -5.8814 C.ar      12 UNK        -0.0733 
     14 C14        30.0666   -4.8618   -4.6511 C.ar      12 UNK        -0.0832 
     15 C15        30.3158   -5.8302   -6.9716 C.3       12 UNK         0.0240 
     16 S16        29.2312   -5.0716   -8.2282 S.3       12 UNK        -0.2522 
     17 C17        27.7504   -4.5807   -7.2686 C.3       12 UNK        -0.0967 
     18 CA         27.2621   -3.1428   -7.5776 C.3       5 UNK         0.0660 
     19 N          25.9515   -2.8736   -6.9725 N.am      5 UNK        -0.4015 
     20 C          25.2362   -1.7558   -7.1641 C.2       4 UNK         0.4946 
     21 O          25.5933   -0.8369   -7.9031 O.2       4 UNK        -0.5353 
     22 CA         23.9303   -1.5815   -6.3718 C.3       4 UNK         0.0277 
     23 CB         23.4723   -2.8372   -5.5933 C.3       4 UNK        -0.1981 
     24 N          24.0377   -0.4074   -5.4965 N.am      4 UNK        -0.4209 
     25 C          24.8928   -0.2477   -4.4758 C.2       3 UNK         0.4942 
     26 O          25.6425   -1.1383   -4.0651 O.2       3 UNK        -0.5208 
     27 CA         24.9447    1.1372   -3.8087 C.3       3 UNK         0.0250 
     28 CB         23.6359    1.9456   -3.9215 C.3       3 UNK        -0.1990 
     29 N          25.2888    0.9462   -2.4064 N.am      3 UNK        -0.4232 
     30 C          26.1198    1.6958   -1.6733 C.2       2 UNK         0.4993 
     31 O          26.6393    2.7391   -2.0697 O.2       2 UNK        -0.5286 
     32 CA         26.4240    1.1873   -0.2509 C.3       2 UNK         0.0209 
     33 CB         25.6291    1.9920    0.7908 C.3       2 UNK        -0.1931 
     34 N          26.1019   -0.2373   -0.1071 N.am      2 UNK        -0.4546 
     35 C          26.9217   -1.2368   -0.4644 C.2       1 UNK         0.5154 
     36 O          28.1047   -1.0713   -0.7625 O.2       1 UNK        -0.5181 
     37 C          28.3057   -2.0558   -7.2283 C.2       5 UNK         0.5014 
     38 O          29.0470   -1.6359   -8.1177 O.2       5 UNK        -0.5248 
     39 N          28.2848   -1.5530   -5.9827 N.am      6 UNK        -0.4434 
     40 CA         29.1528   -0.4650   -5.5216 C.3       6 UNK         0.0363 
     41 CB         28.9657   -0.2585   -4.0111 C.3       6 UNK        -0.1936 
     42 C          28.9301    0.8611   -6.2702 C.2       6 UNK         0.5081 
     43 O          29.8849    1.6194   -6.4503 O.2       6 UNK        -0.5248 
     44 N          27.6872    1.1149   -6.7024 N.am      7 UNK        -0.4718 
     45 CA         27.3288    2.2720   -7.5204 C.3       7 UNK         0.0273 
     46 CB         25.8504    2.6363   -7.3052 C.3       7 UNK        -0.1935 
     47 C          27.6207    2.0113   -9.0036 C.2       7 UNK         0.5018 
     48 O          28.2242    2.8639   -9.6536 O.2       7 UNK        -0.5186 
     49 N          27.2093    0.8375   -9.5058 N.am      8 UNK        -0.4240 
     50 CA         27.3511    0.4226  -10.9047 C.3       8 UNK         0.0235 
     51 CB         26.6212   -0.9114  -11.1260 C.3       8 UNK        -0.2000 
     52 C          28.8109    0.3255  -11.3754 C.2       8 UNK         0.4941 
     53 O          29.1186    0.7884  -12.4745 O.2       8 UNK        -0.5273 
     54 N          29.6845   -0.2454  -10.5350 N.am      9 UNK        -0.4262 
     55 CA         31.1260   -0.3306  -10.7836 C.3       9 UNK         0.0264 
     56 CB         31.6736   -1.6111  -10.1317 C.3       9 UNK        -0.1955 
     57 C          31.8961    0.9208  -10.3151 C.2       9 UNK         0.5031 
     58 O          33.0974    1.0012  -10.5762 O.2       9 UNK        -0.5390 
     59 N          31.2047    1.8701   -9.6605 N.am      10 UNK        -0.4204 
     60 CA         31.7000    3.1483   -9.1323 C.3       10 UNK         0.0237 
     61 CB         32.0358    4.1145  -10.2879 C.3       10 UNK        -0.1985 
     62 C          32.8642    2.9623   -8.1413 C.2       10 UNK         0.4970 
     63 O          33.9585    3.4874   -8.3593 O.2       10 UNK        -0.4914 
     64 N          32.6017    2.1907   -7.0838 N.am      11 UNK        -0.4285 
     65 CA         33.5889    1.7464   -6.0890 C.3       11 UNK         0.1007 
     66 C          33.0850    1.8055   -4.6199 C.2       11 UNK         0.5703 
     67 N          31.8289    2.1423   -4.3541 N.am      11 UNK        -0.7361 
     68 O          33.8618    1.5733   -3.6966 O.2       11 UNK        -0.4986 
     69 C69        34.1957    0.3681   -6.4691 C.3       12 UNK        -0.0947 
     70 S70        32.9290   -0.9233   -6.7101 S.3       12 UNK        -0.2240 
     71 C71        33.2608   -2.0369   -5.3153 C.3       12 UNK         0.0194 
     72 H72        24.2389   -4.5291    0.2182 H         1 UNK         0.0906 
     73 H73        23.5162   -3.0325    0.8409 H         1 UNK         0.0906 
     74 H74        22.5424   -4.1771   -0.0768 H         1 UNK         0.0906 
     75 H75        25.3784   -2.1398   -2.3756 H         1 UNK         0.3140 
     76 H76        25.9039   -2.8025    0.4771 H         1 UNK         0.1085 
     77 H77        28.0828   -3.7872   -0.1841 H         1 UNK         0.0836 
     78 H78        26.7243   -4.7449   -0.6788 H         1 UNK         0.0836 
     79 H79        29.8670   -4.8247   -1.7829 H         1 UNK         0.0731 
     80 H80        29.9261   -3.0740   -1.7277 H         1 UNK         0.0731 
     81 H81        31.6739   -2.2976   -3.1196 H         1 UNK         0.1312 
     82 H82        32.2888   -3.9296   -7.0398 H         1 UNK         0.1406 
     83 H83        29.2766   -5.5783   -4.4709 H         1 UNK         0.1631 
     84 H84        29.8107   -6.6961   -6.5405 H         1 UNK         0.0717 
     85 H85        31.2080   -6.2164   -7.4666 H         1 UNK         0.0717 
     86 H86        26.9633   -5.2943   -7.5173 H         1 UNK         0.0934 
     87 H87        27.9203   -4.6975   -6.2000 H         1 UNK         0.0934 
     88 H88        27.1078   -3.0859   -8.6563 H         1 UNK         0.0739 
     89 H89        25.5986   -3.5609   -6.3231 H         1 UNK         0.3093 
     90 H90        23.1583   -1.3518   -7.1078 H         1 UNK         0.0818 
     91 H91        23.3085   -3.6800   -6.2660 H         1 UNK         0.0819 
     92 H92        24.1896   -3.1518   -4.8346 H         1 UNK         0.0819 
     93 H93        22.5274   -2.6518   -5.0824 H         1 UNK         0.0819 
     94 H94        23.4692    0.3832   -5.7650 H         1 UNK         0.3041 
     95 H95        25.7487    1.6890   -4.2989 H         1 UNK         0.0784 
     96 H96        23.7068    2.8825   -3.3683 H         1 UNK         0.0793 
     97 H97        23.4136    2.2096   -4.9558 H         1 UNK         0.0793 
     98 H98        22.7836    1.3924   -3.5243 H         1 UNK         0.0793 
     99 H99        24.9643    0.0774   -2.0084 H         1 UNK         0.3024 
    100 H100       27.4903    1.3411   -0.0677 H         1 UNK         0.1171 
    101 H101       25.8661    3.0549    0.7252 H         1 UNK         0.0786 
    102 H102       24.5526    1.8891    0.6483 H         1 UNK         0.0786 
    103 H103       25.8666    1.6708    1.8052 H         1 UNK         0.0786 
    104 H104       25.1531   -0.4623    0.1573 H         1 UNK         0.2977 
    105 H105       27.6155   -1.9122   -5.3136 H         1 UNK         0.3127 
    106 H106       30.1833   -0.7753   -5.6982 H         1 UNK         0.0770 
    107 H107       27.9680    0.1062   -3.7694 H         1 UNK         0.0814 
    108 H108       29.6771    0.4705   -3.6244 H         1 UNK         0.0814 
    109 H109       29.1226   -1.1829   -3.4576 H         1 UNK         0.0814 
    110 H110       26.9837    0.3971   -6.5913 H         1 UNK         0.2983 
    111 H111       27.9308    3.1298   -7.2109 H         1 UNK         0.0947 
    112 H112       25.6693    2.9635   -6.2823 H         1 UNK         0.0806 
    113 H113       25.1850    1.7992   -7.5172 H         1 UNK         0.0806 
    114 H114       25.5545    3.4589   -7.9580 H         1 UNK         0.0806 
    115 H115       26.6982    0.2017   -8.8947 H         1 UNK         0.3000 
    116 H116       26.8597    1.1822  -11.5164 H         1 UNK         0.0850 
    117 H117       26.6584   -1.2071  -12.1753 H         1 UNK         0.0810 
    118 H118       25.5702   -0.8418  -10.8446 H         1 UNK         0.0810 
    119 H119       27.0712   -1.7158  -10.5448 H         1 UNK         0.0810 
    120 H120       29.3534   -0.6421   -9.6551 H         1 UNK         0.3040 
    121 H121       31.2984   -0.4164  -11.8586 H         1 UNK         0.0766 
    122 H122       31.4859   -1.6275   -9.0596 H         1 UNK         0.0812 
    123 H123       32.7507   -1.7019  -10.2769 H         1 UNK         0.0812 
    124 H124       31.2112   -2.5007  -10.5592 H         1 UNK         0.0812 
    125 H125       30.2149    1.7102   -9.5268 H         1 UNK         0.3205 
    126 H126       30.8769    3.5864   -8.5652 H         1 UNK         0.0754 
    127 H127       32.3283    5.0934   -9.9058 H         1 UNK         0.0769 
    128 H128       31.1739    4.2648  -10.9384 H         1 UNK         0.0769 
    129 H129       32.8582    3.7446  -10.9012 H         1 UNK         0.0769 
    130 H130       31.6599    1.8261   -6.9610 H         1 UNK         0.2981 
    131 H131       34.4126    2.4623   -6.0962 H         1 UNK         0.0541 
    132 H132       31.1551    2.2701   -5.0994 H         1 UNK         0.3459 
    133 H133       31.5345    2.2014   -3.3932 H         1 UNK         0.3459 
    134 H134       34.9316    0.0441   -5.7312 H         1 UNK         0.0612 
    135 H135       34.7446    0.4632   -7.4071 H         1 UNK         0.0612 
    136 H136       33.4293   -1.4403   -4.4172 H         1 UNK         0.0624 
    137 H137       34.1832   -2.5870   -5.5050 H         1 UNK         0.0624 
@<TRIPOS>BOND
     1    1    2 1    
     2    1   72 1    
     3    1   73 1    
     4    1   74 1    
     5    2    3 2    
     6    2    4 am   BACKBONE|DICT|INTERRES
     7    4    5 1    
     8    4   75 1    
     9    5    6 1    
    10    5   35 1    
    11    5   76 1    
    12    6    7 1    
    13    6   77 1    
    14    6   78 1    
    15    7    8 1    
    16    8    9 1    
    17    8   79 1    
    18    8   80 1    
    19    9   10 ar   
    20    9   14 ar   
    21   10   11 ar   
    22   10   81 1    
    23   11   12 ar   
    24   11   71 1    
    25   12   13 ar   
    26   12   82 1    
    27   13   14 ar   
    28   13   15 1    
    29   14   83 1    
    30   15   16 1    
    31   15   84 1    
    32   15   85 1    
    33   16   17 1    
    34   17   18 1    
    35   17   86 1    
    36   17   87 1    
    37   18   19 1    
    38   18   37 1    
    39   18   88 1    
    40   19   20 am   BACKBONE|DICT|INTERRES
    41   19   89 1    
    42   20   21 2    
    43   20   22 1    
    44   22   23 1    
    45   22   24 1    
    46   22   90 1    
    47   23   91 1    
    48   23   92 1    
    49   23   93 1    
    50   24   25 am   BACKBONE|DICT|INTERRES
    51   24   94 1    
    52   25   26 2    
    53   25   27 1    
    54   27   28 1    
    55   27   29 1    
    56   27   95 1    
    57   28   96 1    
    58   28   97 1    
    59   28   98 1    
    60   29   30 am   BACKBONE|DICT|INTERRES
    61   29   99 1    
    62   30   31 2    
    63   30   32 1    
    64   32   33 1    
    65   32   34 1    
    66   32  100 1    
    67   33  101 1    
    68   33  102 1    
    69   33  103 1    
    70   34   35 am   BACKBONE|DICT|INTERRES
    71   34  104 1    
    72   35   36 2    
    73   37   38 2    
    74   37   39 am   BACKBONE|DICT|INTERRES
    75   39   40 1    
    76   39  105 1    
    77   40   41 1    
    78   40   42 1    
    79   40  106 1    
    80   41  107 1    
    81   41  108 1    
    82   41  109 1    
    83   42   43 2    
    84   42   44 am   BACKBONE|DICT|INTERRES
    85   44   45 1    
    86   44  110 1    
    87   45   46 1    
    88   45   47 1    
    89   45  111 1    
    90   46  112 1    
    91   46  113 1    
    92   46  114 1    
    93   47   48 2    
    94   47   49 am   BACKBONE|DICT|INTERRES
    95   49   50 1    
    96   49  115 1    
    97   50   51 1    
    98   50   52 1    
    99   50  116 1    
   100   51  117 1    
   101   51  118 1    
   102   51  119 1    
   103   52   53 2    
   104   52   54 am   BACKBONE|DICT|INTERRES
   105   54   55 1    
   106   54  120 1    
   107   55   56 1    
   108   55   57 1    
   109   55  121 1    
   110   56  122 1    
   111   56  123 1    
   112   56  124 1    
   113   57   58 2    
   114   57   59 am   BACKBONE|DICT|INTERRES
   115   59   60 1    
   116   59  125 1    
   117   60   61 1    
   118   60   62 1    
   119   60  126 1    
   120   61  127 1    
   121   61  128 1    
   122   61  129 1    
   123   62   63 2    
   124   62   64 am   BACKBONE|DICT|INTERRES
   125   64   65 1    
   126   64  130 1    
   127   65   66 1    
   128   65   69 1    
   129   65  131 1    
   130   66   67 am   BACKBONE|DICT|INTERRES
   131   66   68 2    
   132   67  132 1    
   133   67  133 1    
   134   69   70 1    
   135   69  134 1    
   136   69  135 1    
   137   70   71 1    
   138   71  136 1    
   139   71  137 1    
@<TRIPOS>SUBSTRUCTURE
     1 UNK         1 GROUP             0       ****    0 ROOT    
