@<TRIPOS>MOLECULE
3R137
137   139    1
SMALL
USER_CHARGES


@<TRIPOS>ATOM
      1 CA         26.7751   -7.3437    1.2889 C.3       0 UNK        -0.2020 
      2 C          27.0865   -5.8548    1.2567 C.2       0 UNK         0.4855 
      3 O          26.3027   -5.0538    1.7673 O.2       0 UNK        -0.5197 
      4 N          28.2294   -5.4795    0.6711 N.am      1 UNK        -0.4892 
      5 CA         28.6517   -4.0909    0.4660 C.3       1 UNK         0.0835 
      6 C6         30.1862   -3.9866    0.2559 C.3       12 UNK        -0.0855 
      7 S7         30.8349   -5.0355   -1.0957 S.3       12 UNK        -0.2931 
      8 C8         31.9353   -3.8845   -1.9819 C.3       12 UNK         0.0378 
      9 C9         31.1806   -2.8140   -2.7613 C.ar      12 UNK        -0.0802 
     10 C10        31.3570   -1.4608   -2.4531 C.ar      12 UNK        -0.0944 
     11 C11        30.7209   -0.4687   -3.2066 C.ar      12 UNK        -0.0787 
     12 C12        29.8896   -0.8439   -4.2665 C.ar      12 UNK        -0.0862 
     13 C13        29.7124   -2.1914   -4.5920 C.ar      12 UNK        -0.0733 
     14 C14        30.3546   -3.1726   -3.8316 C.ar      12 UNK        -0.0832 
     15 C15        28.8799   -2.5756   -5.8044 C.3       12 UNK         0.0240 
     16 S16        27.0941   -2.4980   -5.4691 S.3       12 UNK        -0.2522 
     17 C17        26.4444   -2.5666   -7.1817 C.3       12 UNK        -0.0967 
     18 CA         25.9263   -1.2036   -7.7113 C.3       5 UNK         0.0660 
     19 N          24.8365   -0.6967   -6.8710 N.am      5 UNK        -0.4015 
     20 C          24.1836    0.4700   -6.9424 C.2       4 UNK         0.4946 
     21 O          24.4347    1.3473   -7.7702 O.2       4 UNK        -0.5353 
     22 CA         23.0943    0.7301   -5.8796 C.3       4 UNK         0.0277 
     23 CB         21.6888    0.5061   -6.4714 C.3       4 UNK        -0.1981 
     24 N          23.2647    0.0012   -4.6054 N.am      4 UNK        -0.4209 
     25 C          23.1941   -1.3200   -4.3779 C.2       3 UNK         0.4942 
     26 O          22.9978   -2.1568   -5.2595 O.2       3 UNK        -0.5208 
     27 CA         23.5181   -1.7798   -2.9535 C.3       3 UNK         0.0250 
     28 CB         23.0753   -3.2303   -2.6724 C.3       3 UNK        -0.1990 
     29 N          24.9608   -1.6508   -2.7671 N.am      3 UNK        -0.4232 
     30 C          25.5714   -1.4632   -1.5941 C.2       2 UNK         0.4993 
     31 O          24.9838   -1.3931   -0.5118 O.2       2 UNK        -0.5286 
     32 CA         27.0959   -1.2733   -1.6408 C.3       2 UNK         0.0209 
     33 CB         27.4554    0.2027   -1.4087 C.3       2 UNK        -0.1931 
     34 N          27.7733   -2.0899   -0.6350 N.am      2 UNK        -0.4546 
     35 C          27.8614   -3.4253   -0.6813 C.2       1 UNK         0.5154 
     36 O          27.3783   -4.1130   -1.5861 O.2       1 UNK        -0.5181 
     37 C          27.0904   -0.2159   -7.9362 C.2       5 UNK         0.5014 
     38 O          27.7144   -0.2585   -8.9975 O.2       5 UNK        -0.5248 
     39 N          27.3481    0.6641   -6.9556 N.am      6 UNK        -0.4434 
     40 CA         28.3606    1.7240   -6.9787 C.3       6 UNK         0.0363 
     41 CB         28.2464    2.5586   -5.6921 C.3       6 UNK        -0.1936 
     42 C          28.2738    2.6485   -8.2049 C.2       6 UNK         0.5081 
     43 O          29.3109    3.1000   -8.6871 O.2       6 UNK        -0.5248 
     44 N          27.0543    2.8769   -8.7137 N.am      7 UNK        -0.4718 
     45 CA         26.7932    3.6757   -9.9138 C.3       7 UNK         0.0273 
     46 CB         25.2808    3.9258  -10.0271 C.3       7 UNK        -0.1935 
     47 C          27.3324    3.0493  -11.2146 C.2       7 UNK         0.5018 
     48 O          27.5573    3.7851  -12.1765 O.2       7 UNK        -0.5186 
     49 N          27.5203    1.7224  -11.2291 N.am      8 UNK        -0.4240 
     50 CA         28.0298    0.9647  -12.3721 C.3       8 UNK         0.0235 
     51 CB         27.0872   -0.2179  -12.6549 C.3       8 UNK        -0.2000 
     52 C          29.4585    0.4632  -12.1219 C.2       8 UNK         0.4941 
     53 O          30.3082    0.5976  -13.0027 O.2       8 UNK        -0.5273 
     54 N          29.6966   -0.1224  -10.9408 N.am      9 UNK        -0.4262 
     55 CA         30.9479   -0.7954  -10.5868 C.3       9 UNK         0.0264 
     56 CB         30.6448   -1.8641   -9.5229 C.3       9 UNK        -0.1955 
     57 C          32.0483    0.1480  -10.0769 C.2       9 UNK         0.5031 
     58 O          33.1987   -0.2859   -9.9903 O.2       9 UNK        -0.5390 
     59 N          31.6875    1.3801   -9.6791 N.am      10 UNK        -0.4204 
     60 CA         32.5581    2.3923   -9.0556 C.3       10 UNK         0.0237 
     61 CB         33.5862    2.9257  -10.0763 C.3       10 UNK        -0.1985 
     62 C          33.2198    1.9189   -7.7413 C.2       10 UNK         0.4970 
     63 O          34.2739    2.4365   -7.3681 O.2       10 UNK        -0.4914 
     64 N          32.5955    0.9316   -7.0825 N.am      11 UNK        -0.4285 
     65 CA         33.0893    0.2098   -5.8977 C.3       11 UNK         0.1007 
     66 C          34.3731   -0.6385   -6.1539 C.2       11 UNK         0.5703 
     67 N          34.7113   -0.9689   -7.3967 N.am      11 UNK        -0.7361 
     68 O          35.0603   -1.0337   -5.2150 O.2       11 UNK        -0.4986 
     69 C69        33.1836    1.1043   -4.6273 C.3       12 UNK        -0.0947 
     70 S70        31.6139    1.9653   -4.2708 S.3       12 UNK        -0.2240 
     71 C71        30.9434    1.0045   -2.8759 C.3       12 UNK         0.0194 
     72 H72        27.5661   -7.9360    0.8291 H         1 UNK         0.0906 
     73 H73        26.6548   -7.6804    2.3183 H         1 UNK         0.0906 
     74 H74        25.8472   -7.5440    0.7539 H         1 UNK         0.0906 
     75 H75        28.8203   -6.1697    0.2283 H         1 UNK         0.3140 
     76 H76        28.4104   -3.5398    1.3783 H         1 UNK         0.1085 
     77 H77        30.4781   -2.9475    0.0926 H         1 UNK         0.0836 
     78 H78        30.6945   -4.2858    1.1739 H         1 UNK         0.0836 
     79 H79        32.6306   -3.4360   -1.2704 H         1 UNK         0.0731 
     80 H80        32.5466   -4.4572   -2.6808 H         1 UNK         0.0731 
     81 H81        32.0071   -1.1780   -1.6365 H         1 UNK         0.1312 
     82 H82        29.4031   -0.0853   -4.8601 H         1 UNK         0.1406 
     83 H83        30.2282   -4.2177   -4.0808 H         1 UNK         0.1631 
     84 H84        29.1364   -3.5794   -6.1469 H         1 UNK         0.0717 
     85 H85        29.1261   -1.9011   -6.6237 H         1 UNK         0.0717 
     86 H86        27.1996   -2.9790   -7.8544 H         1 UNK         0.0934 
     87 H87        25.6291   -3.2920   -7.1942 H         1 UNK         0.0934 
     88 H88        25.4867   -1.3767   -8.6954 H         1 UNK         0.0739 
     89 H89        24.4615   -1.3642   -6.2045 H         1 UNK         0.3093 
     90 H90        23.1738    1.7880   -5.6238 H         1 UNK         0.0818 
     91 H91        20.9103    0.7598   -5.7520 H         1 UNK         0.0819 
     92 H92        21.5334    1.1332   -7.3505 H         1 UNK         0.0819 
     93 H93        21.5349   -0.5275   -6.7826 H         1 UNK         0.0819 
     94 H94        23.4881    0.5897   -3.8136 H         1 UNK         0.3041 
     95 H95        22.9937   -1.1154   -2.2630 H         1 UNK         0.0784 
     96 H96        22.0082   -3.3564   -2.8595 H         1 UNK         0.0793 
     97 H97        23.6066   -3.9440   -3.3036 H         1 UNK         0.0793 
     98 H98        23.2573   -3.5061   -1.6335 H         1 UNK         0.0793 
     99 H99        25.5199   -1.7175   -3.6084 H         1 UNK         0.3024 
    100 H100       27.4754   -1.5763   -2.6190 H         1 UNK         0.1171 
    101 H101       28.5305    0.3338   -1.3045 H         1 UNK         0.0786 
    102 H102       27.1258    0.8214   -2.2442 H         1 UNK         0.0786 
    103 H103       26.9893    0.5965   -0.5042 H         1 UNK         0.0786 
    104 H104       28.1663   -1.5964    0.1529 H         1 UNK         0.2977 
    105 H105       26.7696    0.6156   -6.1306 H         1 UNK         0.3127 
    106 H106       29.3399    1.2422   -6.9972 H         1 UNK         0.0770 
    107 H107       27.2864    3.0726   -5.6296 H         1 UNK         0.0814 
    108 H108       29.0256    3.3214   -5.6550 H         1 UNK         0.0814 
    109 H109       28.3546    1.9484   -4.7964 H         1 UNK         0.0814 
    110 H110       26.2517    2.4354   -8.2767 H         1 UNK         0.2983 
    111 H111       27.2925    4.6392   -9.7894 H         1 UNK         0.0947 
    112 H112       25.0497    4.5458  -10.8945 H         1 UNK         0.0806 
    113 H113       24.8968    4.4435   -9.1480 H         1 UNK         0.0806 
    114 H114       24.7259    2.9927  -10.1345 H         1 UNK         0.0806 
    115 H115       27.3462    1.2003  -10.3773 H         1 UNK         0.3000 
    116 H116       28.0542    1.5916  -13.2662 H         1 UNK         0.0850 
    117 H117       27.4468   -0.8118  -13.4964 H         1 UNK         0.0810 
    118 H118       26.0855    0.1293  -12.9088 H         1 UNK         0.0810 
    119 H119       27.0008   -0.8853  -11.7962 H         1 UNK         0.0810 
    120 H120       28.9381   -0.1972  -10.2629 H         1 UNK         0.3040 
    121 H121       31.3382   -1.3010  -11.4729 H         1 UNK         0.0766 
    122 H122       30.2723   -1.4159   -8.6023 H         1 UNK         0.0812 
    123 H123       31.5405   -2.4335   -9.2702 H         1 UNK         0.0812 
    124 H124       29.8980   -2.5759   -9.8751 H         1 UNK         0.0812 
    125 H125       30.7140    1.6476   -9.7639 H         1 UNK         0.3205 
    126 H126       31.9140    3.2268   -8.7777 H         1 UNK         0.0754 
    127 H127       34.1368    3.7759   -9.6720 H         1 UNK         0.0769 
    128 H128       33.0975    3.2643  -10.9900 H         1 UNK         0.0769 
    129 H129       34.3182    2.1649  -10.3494 H         1 UNK         0.0769 
    130 H130       31.7414    0.5749   -7.4792 H         1 UNK         0.2981 
    131 H131       32.3273   -0.5422   -5.6951 H         1 UNK         0.0541 
    132 H132       34.1624   -0.6609   -8.1915 H         1 UNK         0.3459 
    133 H133       35.5370   -1.5259   -7.5465 H         1 UNK         0.3459 
    134 H134       33.9667    1.8545   -4.7437 H         1 UNK         0.0612 
    135 H135       33.4629    0.5099   -3.7558 H         1 UNK         0.0612 
    136 H136       29.9953    1.4571   -2.5888 H         1 UNK         0.0624 
    137 H137       31.6109    1.1165   -2.0202 H         1 UNK         0.0624 
@<TRIPOS>BOND
     1    1    2 1    
     2    1   72 1    
     3    1   73 1    
     4    1   74 1    
     5    2    3 2    
     6    2    4 am   BACKBONE|DICT|INTERRES
     7    4    5 1    
     8    4   75 1    
     9    5    6 1    
    10    5   35 1    
    11    5   76 1    
    12    6    7 1    
    13    6   77 1    
    14    6   78 1    
    15    7    8 1    
    16    8    9 1    
    17    8   79 1    
    18    8   80 1    
    19    9   10 ar   
    20    9   14 ar   
    21   10   11 ar   
    22   10   81 1    
    23   11   12 ar   
    24   11   71 1    
    25   12   13 ar   
    26   12   82 1    
    27   13   14 ar   
    28   13   15 1    
    29   14   83 1    
    30   15   16 1    
    31   15   84 1    
    32   15   85 1    
    33   16   17 1    
    34   17   18 1    
    35   17   86 1    
    36   17   87 1    
    37   18   19 1    
    38   18   37 1    
    39   18   88 1    
    40   19   20 am   BACKBONE|DICT|INTERRES
    41   19   89 1    
    42   20   21 2    
    43   20   22 1    
    44   22   23 1    
    45   22   24 1    
    46   22   90 1    
    47   23   91 1    
    48   23   92 1    
    49   23   93 1    
    50   24   25 am   BACKBONE|DICT|INTERRES
    51   24   94 1    
    52   25   26 2    
    53   25   27 1    
    54   27   28 1    
    55   27   29 1    
    56   27   95 1    
    57   28   96 1    
    58   28   97 1    
    59   28   98 1    
    60   29   30 am   BACKBONE|DICT|INTERRES
    61   29   99 1    
    62   30   31 2    
    63   30   32 1    
    64   32   33 1    
    65   32   34 1    
    66   32  100 1    
    67   33  101 1    
    68   33  102 1    
    69   33  103 1    
    70   34   35 am   BACKBONE|DICT|INTERRES
    71   34  104 1    
    72   35   36 2    
    73   37   38 2    
    74   37   39 am   BACKBONE|DICT|INTERRES
    75   39   40 1    
    76   39  105 1    
    77   40   41 1    
    78   40   42 1    
    79   40  106 1    
    80   41  107 1    
    81   41  108 1    
    82   41  109 1    
    83   42   43 2    
    84   42   44 am   BACKBONE|DICT|INTERRES
    85   44   45 1    
    86   44  110 1    
    87   45   46 1    
    88   45   47 1    
    89   45  111 1    
    90   46  112 1    
    91   46  113 1    
    92   46  114 1    
    93   47   48 2    
    94   47   49 am   BACKBONE|DICT|INTERRES
    95   49   50 1    
    96   49  115 1    
    97   50   51 1    
    98   50   52 1    
    99   50  116 1    
   100   51  117 1    
   101   51  118 1    
   102   51  119 1    
   103   52   53 2    
   104   52   54 am   BACKBONE|DICT|INTERRES
   105   54   55 1    
   106   54  120 1    
   107   55   56 1    
   108   55   57 1    
   109   55  121 1    
   110   56  122 1    
   111   56  123 1    
   112   56  124 1    
   113   57   58 2    
   114   57   59 am   BACKBONE|DICT|INTERRES
   115   59   60 1    
   116   59  125 1    
   117   60   61 1    
   118   60   62 1    
   119   60  126 1    
   120   61  127 1    
   121   61  128 1    
   122   61  129 1    
   123   62   63 2    
   124   62   64 am   BACKBONE|DICT|INTERRES
   125   64   65 1    
   126   64  130 1    
   127   65   66 1    
   128   65   69 1    
   129   65  131 1    
   130   66   67 am   BACKBONE|DICT|INTERRES
   131   66   68 2    
   132   67  132 1    
   133   67  133 1    
   134   69   70 1    
   135   69  134 1    
   136   69  135 1    
   137   70   71 1    
   138   71  136 1    
   139   71  137 1    
@<TRIPOS>SUBSTRUCTURE
     1 UNK         1 GROUP             0       ****    0 ROOT    
