@<TRIPOS>MOLECULE
3R137
137   139    1
SMALL
USER_CHARGES


@<TRIPOS>ATOM
      1 CA         25.0979   -6.1027   -5.5816 C.3       0 UNK        -0.2020 
      2 C          25.3617   -5.3109   -4.3105 C.2       0 UNK         0.4855 
      3 O          24.4449   -4.6840   -3.7791 O.2       0 UNK        -0.5197 
      4 N          26.6080   -5.3321   -3.8185 N.am      1 UNK        -0.4892 
      5 CA         27.0381   -4.6362   -2.6007 C.3       1 UNK         0.0835 
      6 C6         28.4808   -5.0301   -2.2022 C.3       12 UNK        -0.0855 
      7 S7         28.8558   -4.5781   -0.4730 S.3       12 UNK        -0.2931 
      8 C8         30.6745   -4.4733   -0.4905 C.3       12 UNK         0.0378 
      9 C9         31.2150   -3.4018   -1.4321 C.ar      12 UNK        -0.0802 
     10 C10        32.1474   -3.7507   -2.4142 C.ar      12 UNK        -0.0944 
     11 C11        32.6942   -2.7765   -3.2524 C.ar      12 UNK        -0.0787 
     12 C12        32.3019   -1.4438   -3.1042 C.ar      12 UNK        -0.0862 
     13 C13        31.3594   -1.0779   -2.1380 C.ar      12 UNK        -0.0733 
     14 C14        30.8224   -2.0637   -1.3013 C.ar      12 UNK        -0.0832 
     15 C15        30.9615    0.3855   -1.9597 C.3       12 UNK         0.0240 
     16 S16        30.5032    1.2165   -3.5198 S.3       12 UNK        -0.2522 
     17 C17        28.9082    0.4245   -3.8886 C.3       12 UNK        -0.0967 
     18 CA         28.4787    0.5555   -5.3725 C.3       5 UNK         0.0660 
     19 N          27.5224   -0.4942   -5.7379 N.am      5 UNK        -0.4015 
     20 C          26.9560   -0.6644   -6.9418 C.2       4 UNK         0.4946 
     21 O          27.2106    0.0164   -7.9351 O.2       4 UNK        -0.5353 
     22 CA         25.8744   -1.7507   -7.0406 C.3       4 UNK         0.0277 
     23 CB         26.5076   -3.1355   -7.2437 C.3       4 UNK        -0.1981 
     24 N          24.9885   -1.7610   -5.8717 N.am      4 UNK        -0.4209 
     25 C          24.1294   -0.7740   -5.5751 C.2       3 UNK         0.4942 
     26 O          23.9616    0.2219   -6.2757 O.2       3 UNK        -0.5208 
     27 CA         23.3724   -0.8834   -4.2435 C.3       3 UNK         0.0250 
     28 CB         22.2211   -1.8966   -4.3421 C.3       3 UNK        -0.1990 
     29 N          24.2596   -1.2327   -3.1332 N.am      3 UNK        -0.4232 
     30 C          25.2493   -0.4448   -2.6861 C.2       2 UNK         0.4993 
     31 O          25.4878    0.6768   -3.1337 O.2       2 UNK        -0.5286 
     32 CA         26.1581   -1.0173   -1.5852 C.3       2 UNK         0.0209 
     33 CB         25.6033   -0.6705   -0.1950 C.3       2 UNK        -0.1931 
     34 N          26.3726   -2.4642   -1.6783 N.am      2 UNK        -0.4546 
     35 C          26.8834   -3.1072   -2.7380 C.2       1 UNK         0.5154 
     36 O          27.2165   -2.5490   -3.7869 O.2       1 UNK        -0.5181 
     37 C          27.9419    1.9685   -5.6927 C.2       5 UNK         0.5014 
     38 O          28.6572    2.7726   -6.2928 O.2       5 UNK        -0.5248 
     39 N          26.6839    2.2299   -5.3081 N.am      6 UNK        -0.4434 
     40 CA         25.9749    3.4766   -5.5867 C.3       6 UNK         0.0363 
     41 CB         24.7522    3.5855   -4.6609 C.3       6 UNK        -0.1936 
     42 C          25.5524    3.6175   -7.0593 C.2       6 UNK         0.5081 
     43 O          25.7503    4.6868   -7.6373 O.2       6 UNK        -0.5248 
     44 N          24.9413    2.5679   -7.6282 N.am      7 UNK        -0.4718 
     45 CA         24.3377    2.5988   -8.9644 C.3       7 UNK         0.0273 
     46 CB         23.3804    1.4081   -9.1337 C.3       7 UNK        -0.1935 
     47 C          25.3547    2.6268  -10.1145 C.2       7 UNK         0.5018 
     48 O          25.1219    3.3371  -11.0943 O.2       7 UNK        -0.5186 
     49 N          26.4342    1.8447   -9.9953 N.am      8 UNK        -0.4240 
     50 CA         27.4799    1.7209  -11.0065 C.3       8 UNK         0.0235 
     51 CB         27.7105    0.2305  -11.3327 C.3       8 UNK        -0.2000 
     52 C          28.7392    2.4408  -10.5118 C.2       8 UNK         0.4941 
     53 O          28.9061    3.6277  -10.7970 O.2       8 UNK        -0.5273 
     54 N          29.6039    1.7178   -9.7957 N.am      9 UNK        -0.4262 
     55 CA         30.8826    2.1774   -9.2670 C.3       9 UNK         0.0264 
     56 CB         31.9188    2.2975  -10.4034 C.3       9 UNK        -0.1955 
     57 C          31.3472    1.1713   -8.2108 C.2       9 UNK         0.5031 
     58 O          30.8104    0.0602   -8.1451 O.2       9 UNK        -0.5390 
     59 N          32.3570    1.5613   -7.4238 N.am      10 UNK        -0.4204 
     60 CA         32.9635    0.7636   -6.3552 C.3       10 UNK         0.0237 
     61 CB         33.7415    1.7021   -5.4129 C.3       10 UNK        -0.1985 
     62 C          33.8286   -0.3995   -6.8831 C.2       10 UNK         0.4970 
     63 O          35.0379   -0.4279   -6.6464 O.2       10 UNK        -0.4914 
     64 N          33.1763   -1.3420   -7.5708 N.am      11 UNK        -0.4285 
     65 CA         33.7346   -2.5800   -8.1354 C.3       11 UNK         0.1007 
     66 C          34.7777   -2.3228   -9.2666 C.2       11 UNK         0.5703 
     67 N          35.6219   -3.2927   -9.5951 N.am      11 UNK        -0.7361 
     68 O          34.7960   -1.2659   -9.8962 O.2       11 UNK        -0.4986 
     69 C69        34.2135   -3.5836   -7.0409 C.3       12 UNK        -0.0947 
     70 S70        32.9435   -3.8993   -5.7654 S.3       12 UNK        -0.2240 
     71 C71        33.7272   -3.1564   -4.3012 C.3       12 UNK         0.0194 
     72 H72        24.6193   -7.0508   -5.3381 H         1 UNK         0.0906 
     73 H73        24.4313   -5.5481   -6.2414 H         1 UNK         0.0906 
     74 H74        26.0179   -6.3120   -6.1271 H         1 UNK         0.0906 
     75 H75        27.3283   -5.8383   -4.3135 H         1 UNK         0.3140 
     76 H76        26.3648   -4.9749   -1.8096 H         1 UNK         0.1085 
     77 H77        28.6147   -6.1095   -2.2896 H         1 UNK         0.0836 
     78 H78        29.2053   -4.5788   -2.8832 H         1 UNK         0.0836 
     79 H79        31.0217   -4.2563    0.5205 H         1 UNK         0.0731 
     80 H80        31.0757   -5.4553   -0.7462 H         1 UNK         0.0731 
     81 H81        32.4603   -4.7804   -2.5229 H         1 UNK         0.1312 
     82 H82        32.7371   -0.6849   -3.7370 H         1 UNK         0.1406 
     83 H83        30.1071   -1.7929   -0.5364 H         1 UNK         0.1631 
     84 H84        31.8039    0.9196   -1.5184 H         1 UNK         0.0717 
     85 H85        30.1338    0.4816   -1.2551 H         1 UNK         0.0717 
     86 H86        29.0064   -0.6298   -3.6265 H         1 UNK         0.0934 
     87 H87        28.1540    0.8379   -3.2190 H         1 UNK         0.0934 
     88 H88        29.3565    0.3882   -5.9972 H         1 UNK         0.0739 
     89 H89        27.2844   -1.1586   -5.0042 H         1 UNK         0.3093 
     90 H90        25.2667   -1.5264   -7.9200 H         1 UNK         0.0818 
     91 H91        25.7486   -3.8875   -7.4547 H         1 UNK         0.0819 
     92 H92        27.1942   -3.1281   -8.0915 H         1 UNK         0.0819 
     93 H93        27.0745   -3.4578   -6.3697 H         1 UNK         0.0819 
     94 H94        25.1028   -2.5169   -5.2104 H         1 UNK         0.3041 
     95 H95        22.9414    0.0969   -4.0279 H         1 UNK         0.0784 
     96 H96        21.5351   -1.6270   -5.1464 H         1 UNK         0.0793 
     97 H97        22.5806   -2.9054   -4.5467 H         1 UNK         0.0793 
     98 H98        21.6407   -1.9283   -3.4199 H         1 UNK         0.0793 
     99 H99        24.1552   -2.1547   -2.7325 H         1 UNK         0.3024 
    100 H100       27.1342   -0.5414   -1.6849 H         1 UNK         0.1171 
    101 H101       25.4570    0.4058   -0.0911 H         1 UNK         0.0786 
    102 H102       26.2885   -0.9792    0.5948 H         1 UNK         0.0786 
    103 H103       24.6405   -1.1494   -0.0122 H         1 UNK         0.0786 
    104 H104       26.1437   -3.0030   -0.8549 H         1 UNK         0.2977 
    105 H105       26.1808    1.5337   -4.7639 H         1 UNK         0.3127 
    106 H106       26.6462    4.3060   -5.3537 H         1 UNK         0.0770 
    107 H107       24.0552    2.7601   -4.8132 H         1 UNK         0.0814 
    108 H108       24.2067    4.5130   -4.8398 H         1 UNK         0.0814 
    109 H109       25.0488    3.5798   -3.6119 H         1 UNK         0.0814 
    110 H110       24.7791    1.7269   -7.0780 H         1 UNK         0.2983 
    111 H111       23.7437    3.5128   -9.0374 H         1 UNK         0.0947 
    112 H112       22.5880    1.4270   -8.3852 H         1 UNK         0.0806 
    113 H113       22.9006    1.4268  -10.1132 H         1 UNK         0.0806 
    114 H114       23.9034    0.4552   -9.0440 H         1 UNK         0.0806 
    115 H115       26.5744    1.3082   -9.1405 H         1 UNK         0.3000 
    116 H116       27.1808    2.2108  -11.9356 H         1 UNK         0.0850 
    117 H117       28.5345    0.1075  -12.0370 H         1 UNK         0.0810 
    118 H118       26.8253   -0.2061  -11.7953 H         1 UNK         0.0810 
    119 H119       27.9411   -0.3633  -10.4482 H         1 UNK         0.0810 
    120 H120       29.3666    0.7709   -9.5193 H         1 UNK         0.3040 
    121 H121       30.7377    3.1460   -8.7836 H         1 UNK         0.0766 
    122 H122       32.8856    2.6323  -10.0261 H         1 UNK         0.0812 
    123 H123       31.6057    3.0190  -11.1580 H         1 UNK         0.0812 
    124 H124       32.0778    1.3406  -10.9024 H         1 UNK         0.0812 
    125 H125       32.7566    2.4765   -7.5747 H         1 UNK         0.3205 
    126 H126       32.1534    0.3116   -5.7807 H         1 UNK         0.0754 
    127 H127       34.1821    1.1485   -4.5827 H         1 UNK         0.0769 
    128 H128       33.0877    2.4599   -4.9804 H         1 UNK         0.0769 
    129 H129       34.5536    2.2137   -5.9310 H         1 UNK         0.0769 
    130 H130       32.1961   -1.1640   -7.7737 H         1 UNK         0.2981 
    131 H131       32.8935   -3.0468   -8.6487 H         1 UNK         0.0541 
    132 H132       35.6148   -4.1771   -9.1123 H         1 UNK         0.3459 
    133 H133       36.2816   -3.1337  -10.3405 H         1 UNK         0.3459 
    134 H134       35.1343   -3.2315   -6.5731 H         1 UNK         0.0612 
    135 H135       34.4532   -4.5487   -7.4889 H         1 UNK         0.0612 
    136 H136       34.2994   -2.2747   -4.5919 H         1 UNK         0.0624 
    137 H137       34.4449   -3.8626   -3.8815 H         1 UNK         0.0624 
@<TRIPOS>BOND
     1    1    2 1    
     2    1   72 1    
     3    1   73 1    
     4    1   74 1    
     5    2    3 2    
     6    2    4 am   BACKBONE|DICT|INTERRES
     7    4    5 1    
     8    4   75 1    
     9    5    6 1    
    10    5   35 1    
    11    5   76 1    
    12    6    7 1    
    13    6   77 1    
    14    6   78 1    
    15    7    8 1    
    16    8    9 1    
    17    8   79 1    
    18    8   80 1    
    19    9   10 ar   
    20    9   14 ar   
    21   10   11 ar   
    22   10   81 1    
    23   11   12 ar   
    24   11   71 1    
    25   12   13 ar   
    26   12   82 1    
    27   13   14 ar   
    28   13   15 1    
    29   14   83 1    
    30   15   16 1    
    31   15   84 1    
    32   15   85 1    
    33   16   17 1    
    34   17   18 1    
    35   17   86 1    
    36   17   87 1    
    37   18   19 1    
    38   18   37 1    
    39   18   88 1    
    40   19   20 am   BACKBONE|DICT|INTERRES
    41   19   89 1    
    42   20   21 2    
    43   20   22 1    
    44   22   23 1    
    45   22   24 1    
    46   22   90 1    
    47   23   91 1    
    48   23   92 1    
    49   23   93 1    
    50   24   25 am   BACKBONE|DICT|INTERRES
    51   24   94 1    
    52   25   26 2    
    53   25   27 1    
    54   27   28 1    
    55   27   29 1    
    56   27   95 1    
    57   28   96 1    
    58   28   97 1    
    59   28   98 1    
    60   29   30 am   BACKBONE|DICT|INTERRES
    61   29   99 1    
    62   30   31 2    
    63   30   32 1    
    64   32   33 1    
    65   32   34 1    
    66   32  100 1    
    67   33  101 1    
    68   33  102 1    
    69   33  103 1    
    70   34   35 am   BACKBONE|DICT|INTERRES
    71   34  104 1    
    72   35   36 2    
    73   37   38 2    
    74   37   39 am   BACKBONE|DICT|INTERRES
    75   39   40 1    
    76   39  105 1    
    77   40   41 1    
    78   40   42 1    
    79   40  106 1    
    80   41  107 1    
    81   41  108 1    
    82   41  109 1    
    83   42   43 2    
    84   42   44 am   BACKBONE|DICT|INTERRES
    85   44   45 1    
    86   44  110 1    
    87   45   46 1    
    88   45   47 1    
    89   45  111 1    
    90   46  112 1    
    91   46  113 1    
    92   46  114 1    
    93   47   48 2    
    94   47   49 am   BACKBONE|DICT|INTERRES
    95   49   50 1    
    96   49  115 1    
    97   50   51 1    
    98   50   52 1    
    99   50  116 1    
   100   51  117 1    
   101   51  118 1    
   102   51  119 1    
   103   52   53 2    
   104   52   54 am   BACKBONE|DICT|INTERRES
   105   54   55 1    
   106   54  120 1    
   107   55   56 1    
   108   55   57 1    
   109   55  121 1    
   110   56  122 1    
   111   56  123 1    
   112   56  124 1    
   113   57   58 2    
   114   57   59 am   BACKBONE|DICT|INTERRES
   115   59   60 1    
   116   59  125 1    
   117   60   61 1    
   118   60   62 1    
   119   60  126 1    
   120   61  127 1    
   121   61  128 1    
   122   61  129 1    
   123   62   63 2    
   124   62   64 am   BACKBONE|DICT|INTERRES
   125   64   65 1    
   126   64  130 1    
   127   65   66 1    
   128   65   69 1    
   129   65  131 1    
   130   66   67 am   BACKBONE|DICT|INTERRES
   131   66   68 2    
   132   67  132 1    
   133   67  133 1    
   134   69   70 1    
   135   69  134 1    
   136   69  135 1    
   137   70   71 1    
   138   71  136 1    
   139   71  137 1    
@<TRIPOS>SUBSTRUCTURE
     1 UNK         1 GROUP             0       ****    0 ROOT    
