@<TRIPOS>MOLECULE
3R137
137   139    1
SMALL
USER_CHARGES


@<TRIPOS>ATOM
      1 CA         29.1391   -5.3942   -4.3902 C.3       0 UNK        -0.2020 
      2 C          28.1065   -4.7750   -3.4604 C.2       0 UNK         0.4855 
      3 O          26.9360   -5.1526   -3.5114 O.2       0 UNK        -0.5197 
      4 N          28.5379   -3.8470   -2.5969 N.am      1 UNK        -0.4892 
      5 CA         27.7382   -3.2416   -1.5252 C.3       1 UNK         0.0835 
      6 C6         28.5993   -2.3814   -0.5622 C.3       12 UNK        -0.0855 
      7 S7         30.1309   -3.2294   -0.0260 S.3       12 UNK        -0.2931 
      8 C8         31.4319   -1.9806   -0.3216 C.3       12 UNK         0.0378 
      9 C9         31.4008   -1.3891   -1.7268 C.ar      12 UNK        -0.0802 
     10 C10        31.6466   -2.1898   -2.8467 C.ar      12 UNK        -0.0944 
     11 C11        31.6071   -1.6423   -4.1345 C.ar      12 UNK        -0.0787 
     12 C12        31.3051   -0.2867   -4.2960 C.ar      12 UNK        -0.0862 
     13 C13        31.0632    0.5258   -3.1842 C.ar      12 UNK        -0.0733 
     14 C14        31.1268   -0.0289   -1.9026 C.ar      12 UNK        -0.0832 
     15 C15        30.7267    2.0010   -3.3737 C.3       12 UNK         0.0240 
     16 S16        29.1355    2.4952   -2.6181 S.3       12 UNK        -0.2522 
     17 C17        27.9896    1.1935   -3.1841 C.3       12 UNK        -0.0967 
     18 CA         27.6652    1.2704   -4.6969 C.3       5 UNK         0.0660 
     19 N          27.4642   -0.0636   -5.2663 N.am      5 UNK        -0.4015 
     20 C          27.4666   -0.3301   -6.5791 C.2       4 UNK         0.4946 
     21 O          27.6278    0.5239   -7.4474 O.2       4 UNK        -0.5353 
     22 CA         27.1946   -1.7806   -6.9997 C.3       4 UNK         0.0277 
     23 CB         28.4600   -2.6313   -6.8202 C.3       4 UNK        -0.1981 
     24 N          26.0721   -2.3804   -6.2723 N.am      4 UNK        -0.4209 
     25 C          24.8046   -1.9458   -6.3518 C.2       3 UNK         0.4942 
     26 O          24.4454   -1.0044   -7.0576 O.2       3 UNK        -0.5208 
     27 CA         23.7927   -2.6096   -5.4160 C.3       3 UNK         0.0250 
     28 CB         23.6711   -4.1257   -5.6530 C.3       3 UNK        -0.1990 
     29 N          24.2257   -2.3338   -4.0541 N.am      3 UNK        -0.4232 
     30 C          23.4601   -2.0869   -2.9917 C.2       2 UNK         0.4993 
     31 O          22.2309   -2.1698   -3.0036 O.2       2 UNK        -0.5286 
     32 CA         24.2046   -1.6524   -1.7063 C.3       2 UNK         0.0209 
     33 CB         23.2907   -1.6644   -0.4661 C.3       2 UNK        -0.1931 
     34 N          25.4206   -2.4255   -1.4038 N.am      2 UNK        -0.4546 
     35 C          26.5744   -2.4028   -2.0868 C.2       1 UNK         0.5154 
     36 O          26.7417   -1.7439   -3.1186 O.2       1 UNK        -0.5181 
     37 C          26.4791    2.2118   -4.9903 C.2       5 UNK         0.5014 
     38 O          26.6936    3.4055   -5.2003 O.2       5 UNK        -0.5248 
     39 N          25.2586    1.6556   -5.0499 N.am      6 UNK        -0.4434 
     40 CA         24.0384    2.3697   -5.4372 C.3       6 UNK         0.0363 
     41 CB         22.8062    1.5166   -5.0939 C.3       6 UNK        -0.1936 
     42 C          24.0419    2.7657   -6.9249 C.2       6 UNK         0.5081 
     43 O          23.6159    3.8708   -7.2598 O.2       6 UNK        -0.5248 
     44 N          24.5589    1.8756   -7.7834 N.am      7 UNK        -0.4718 
     45 CA         24.7901    2.1206   -9.2107 C.3       7 UNK         0.0273 
     46 CB         24.9357    0.7651   -9.9229 C.3       7 UNK        -0.1935 
     47 C          26.0214    3.0053   -9.4950 C.2       7 UNK         0.5018 
     48 O          26.1776    3.4576  -10.6299 O.2       7 UNK        -0.5186 
     49 N          26.8732    3.2115   -8.4789 N.am      8 UNK        -0.4240 
     50 CA         28.1798    3.8796   -8.5107 C.3       8 UNK         0.0235 
     51 CB         28.0346    5.3768   -8.8570 C.3       8 UNK        -0.2000 
     52 C          29.2008    3.1417   -9.4013 C.2       8 UNK         0.4941 
     53 O          30.0030    3.7820  -10.0846 O.2       8 UNK        -0.5273 
     54 N          29.1498    1.8047   -9.3774 N.am      9 UNK        -0.4262 
     55 CA         30.0548    0.9111  -10.0924 C.3       9 UNK         0.0264 
     56 CB         29.2898   -0.3689  -10.4679 C.3       9 UNK        -0.1955 
     57 C          31.2671    0.5692   -9.2149 C.2       9 UNK         0.5031 
     58 O          31.1333    0.4509   -7.9937 O.2       9 UNK        -0.5390 
     59 N          32.4219    0.3809   -9.8619 N.am      10 UNK        -0.4204 
     60 CA         33.6543   -0.0913   -9.2313 C.3       10 UNK         0.0237 
     61 CB         34.8550    0.3918  -10.0628 C.3       10 UNK        -0.1985 
     62 C          33.6581   -1.6246   -9.1214 C.2       10 UNK         0.4970 
     63 O          32.9959   -2.3004   -9.9133 O.2       10 UNK        -0.4914 
     64 N          34.4387   -2.1385   -8.1678 N.am      11 UNK        -0.4285 
     65 CA         34.6203   -3.5747   -7.9031 C.3       11 UNK         0.1007 
     66 C          36.0825   -3.9605   -7.5325 C.2       11 UNK         0.5703 
     67 N          37.0645   -3.0806   -7.6985 N.am      11 UNK        -0.7361 
     68 O          36.3423   -5.0858   -7.1123 O.2       11 UNK        -0.4986 
     69 C69        33.5542   -4.1284   -6.9165 C.3       12 UNK        -0.0947 
     70 S70        33.5295   -3.2637   -5.3082 S.3       12 UNK        -0.2240 
     71 C71        31.8743   -2.5110   -5.3557 C.3       12 UNK         0.0194 
     72 H72        29.1451   -6.4768   -4.2663 H         1 UNK         0.0906 
     73 H73        30.1449   -5.0316   -4.1818 H         1 UNK         0.0906 
     74 H74        28.8992   -5.1783   -5.4296 H         1 UNK         0.0906 
     75 H75        29.5051   -3.5569   -2.6089 H         1 UNK         0.3140 
     76 H76        27.3125   -4.0679   -0.9515 H         1 UNK         0.1085 
     77 H77        28.0250   -2.1326    0.3323 H         1 UNK         0.0836 
     78 H78        28.8476   -1.4251   -1.0232 H         1 UNK         0.0836 
     79 H79        31.3335   -1.1953    0.4296 H         1 UNK         0.0731 
     80 H80        32.4061   -2.4411   -0.1519 H         1 UNK         0.0731 
     81 H81        31.8757   -3.2387   -2.7153 H         1 UNK         0.1312 
     82 H82        31.2583    0.1364   -5.2910 H         1 UNK         0.1406 
     83 H83        30.9377    0.6004   -1.0432 H         1 UNK         0.1631 
     84 H84        30.7050    2.2580   -4.4337 H         1 UNK         0.0717 
     85 H85        31.5232    2.6028   -2.9343 H         1 UNK         0.0717 
     86 H86        28.4438    0.2338   -2.9388 H         1 UNK         0.0934 
     87 H87        27.0828    1.2311   -2.5770 H         1 UNK         0.0934 
     88 H88        28.5297    1.6879   -5.2168 H         1 UNK         0.0739 
     89 H89        27.3017   -0.8141   -4.5981 H         1 UNK         0.3093 
     90 H90        26.9366   -1.7725   -8.0610 H         1 UNK         0.0818 
     91 H91        29.3035   -2.1928   -7.3563 H         1 UNK         0.0819 
     92 H92        28.7465   -2.7053   -5.7709 H         1 UNK         0.0819 
     93 H93        28.3186   -3.6386   -7.2113 H         1 UNK         0.0819 
     94 H94        26.2843   -3.1588   -5.6645 H         1 UNK         0.3041 
     95 H95        22.8200   -2.1452   -5.5929 H         1 UNK         0.0784 
     96 H96        23.4195   -4.3400   -6.6925 H         1 UNK         0.0793 
     97 H97        24.5960   -4.6549   -5.4201 H         1 UNK         0.0793 
     98 H98        22.8827   -4.5544   -5.0340 H         1 UNK         0.0793 
     99 H99        25.2265   -2.2060   -3.9168 H         1 UNK         0.3024 
    100 H100       24.5097   -0.6170   -1.8749 H         1 UNK         0.1171 
    101 H101       22.4160   -1.0295   -0.6145 H         1 UNK         0.0786 
    102 H102       22.9306   -2.6693   -0.2420 H         1 UNK         0.0786 
    103 H103       23.8104   -1.2882    0.4153 H         1 UNK         0.0786 
    104 H104       25.3632   -3.0198   -0.5889 H         1 UNK         0.2977 
    105 H105       25.1757    0.6618   -4.8995 H         1 UNK         0.3127 
    106 H106       23.9871    3.2896   -4.8504 H         1 UNK         0.0770 
    107 H107       22.7891    0.5800   -5.6514 H         1 UNK         0.0814 
    108 H108       21.8865    2.0518   -5.3339 H         1 UNK         0.0814 
    109 H109       22.7712    1.2756   -4.0314 H         1 UNK         0.0814 
    110 H110       24.8131    0.9545   -7.4387 H         1 UNK         0.2983 
    111 H111       23.9180    2.6342   -9.6211 H         1 UNK         0.0947 
    112 H112       25.7993    0.2092   -9.5554 H         1 UNK         0.0806 
    113 H113       25.0661    0.8977  -10.9977 H         1 UNK         0.0806 
    114 H114       24.0523    0.1432   -9.7774 H         1 UNK         0.0806 
    115 H115       26.6495    2.7513   -7.6066 H         1 UNK         0.3000 
    116 H116       28.5707    3.8155   -7.4939 H         1 UNK         0.0850 
    117 H117       28.9853    5.8981   -8.7391 H         1 UNK         0.0810 
    118 H118       27.3140    5.8662   -8.2018 H         1 UNK         0.0810 
    119 H119       27.7092    5.5262   -9.8869 H         1 UNK         0.0810 
    120 H120       28.5222    1.3559   -8.7084 H         1 UNK         0.3040 
    121 H121       30.3961    1.3956  -11.0098 H         1 UNK         0.0766 
    122 H122       28.9337   -0.8983   -9.5836 H         1 UNK         0.0812 
    123 H123       29.9267   -1.0573  -11.0251 H         1 UNK         0.0812 
    124 H124       28.4255   -0.1449  -11.0934 H         1 UNK         0.0812 
    125 H125       32.4295    0.4400  -10.8700 H         1 UNK         0.3205 
    126 H126       33.7294    0.3344   -8.2279 H         1 UNK         0.0754 
    127 H127       35.7981    0.0935   -9.6032 H         1 UNK         0.0769 
    128 H128       34.8680    1.4789  -10.1449 H         1 UNK         0.0769 
    129 H129       34.8405   -0.0205  -11.0728 H         1 UNK         0.0769 
    130 H130       34.9388   -1.5198   -7.5460 H         1 UNK         0.2981 
    131 H131       34.4683   -4.1019   -8.8467 H         1 UNK         0.0541 
    132 H132       36.8945   -2.1748   -8.1028 H         1 UNK         0.3459 
    133 H133       38.0054   -3.3526   -7.4598 H         1 UNK         0.3459 
    134 H134       33.7088   -5.1929   -6.7332 H         1 UNK         0.0612 
    135 H135       32.5684   -4.0586   -7.3786 H         1 UNK         0.0612 
    136 H136       31.1234   -3.2977   -5.4121 H         1 UNK         0.0624 
    137 H137       31.7815   -1.9256   -6.2724 H         1 UNK         0.0624 
@<TRIPOS>BOND
     1    1    2 1    
     2    1   72 1    
     3    1   73 1    
     4    1   74 1    
     5    2    3 2    
     6    2    4 am   BACKBONE|DICT|INTERRES
     7    4    5 1    
     8    4   75 1    
     9    5    6 1    
    10    5   35 1    
    11    5   76 1    
    12    6    7 1    
    13    6   77 1    
    14    6   78 1    
    15    7    8 1    
    16    8    9 1    
    17    8   79 1    
    18    8   80 1    
    19    9   10 ar   
    20    9   14 ar   
    21   10   11 ar   
    22   10   81 1    
    23   11   12 ar   
    24   11   71 1    
    25   12   13 ar   
    26   12   82 1    
    27   13   14 ar   
    28   13   15 1    
    29   14   83 1    
    30   15   16 1    
    31   15   84 1    
    32   15   85 1    
    33   16   17 1    
    34   17   18 1    
    35   17   86 1    
    36   17   87 1    
    37   18   19 1    
    38   18   37 1    
    39   18   88 1    
    40   19   20 am   BACKBONE|DICT|INTERRES
    41   19   89 1    
    42   20   21 2    
    43   20   22 1    
    44   22   23 1    
    45   22   24 1    
    46   22   90 1    
    47   23   91 1    
    48   23   92 1    
    49   23   93 1    
    50   24   25 am   BACKBONE|DICT|INTERRES
    51   24   94 1    
    52   25   26 2    
    53   25   27 1    
    54   27   28 1    
    55   27   29 1    
    56   27   95 1    
    57   28   96 1    
    58   28   97 1    
    59   28   98 1    
    60   29   30 am   BACKBONE|DICT|INTERRES
    61   29   99 1    
    62   30   31 2    
    63   30   32 1    
    64   32   33 1    
    65   32   34 1    
    66   32  100 1    
    67   33  101 1    
    68   33  102 1    
    69   33  103 1    
    70   34   35 am   BACKBONE|DICT|INTERRES
    71   34  104 1    
    72   35   36 2    
    73   37   38 2    
    74   37   39 am   BACKBONE|DICT|INTERRES
    75   39   40 1    
    76   39  105 1    
    77   40   41 1    
    78   40   42 1    
    79   40  106 1    
    80   41  107 1    
    81   41  108 1    
    82   41  109 1    
    83   42   43 2    
    84   42   44 am   BACKBONE|DICT|INTERRES
    85   44   45 1    
    86   44  110 1    
    87   45   46 1    
    88   45   47 1    
    89   45  111 1    
    90   46  112 1    
    91   46  113 1    
    92   46  114 1    
    93   47   48 2    
    94   47   49 am   BACKBONE|DICT|INTERRES
    95   49   50 1    
    96   49  115 1    
    97   50   51 1    
    98   50   52 1    
    99   50  116 1    
   100   51  117 1    
   101   51  118 1    
   102   51  119 1    
   103   52   53 2    
   104   52   54 am   BACKBONE|DICT|INTERRES
   105   54   55 1    
   106   54  120 1    
   107   55   56 1    
   108   55   57 1    
   109   55  121 1    
   110   56  122 1    
   111   56  123 1    
   112   56  124 1    
   113   57   58 2    
   114   57   59 am   BACKBONE|DICT|INTERRES
   115   59   60 1    
   116   59  125 1    
   117   60   61 1    
   118   60   62 1    
   119   60  126 1    
   120   61  127 1    
   121   61  128 1    
   122   61  129 1    
   123   62   63 2    
   124   62   64 am   BACKBONE|DICT|INTERRES
   125   64   65 1    
   126   64  130 1    
   127   65   66 1    
   128   65   69 1    
   129   65  131 1    
   130   66   67 am   BACKBONE|DICT|INTERRES
   131   66   68 2    
   132   67  132 1    
   133   67  133 1    
   134   69   70 1    
   135   69  134 1    
   136   69  135 1    
   137   70   71 1    
   138   71  136 1    
   139   71  137 1    
@<TRIPOS>SUBSTRUCTURE
     1 UNK         1 GROUP             0       ****    0 ROOT    
