@<TRIPOS>MOLECULE
3R137
137   139    1
SMALL
USER_CHARGES


@<TRIPOS>ATOM
      1 CA         23.8041   -4.9213   -5.4670 C.3       0 UNK        -0.2020 
      2 C          24.3887   -4.5455   -4.1144 C.2       0 UNK         0.4855 
      3 O          23.7280   -3.8566   -3.3359 O.2       0 UNK        -0.5197 
      4 N          25.6252   -4.9800   -3.8337 N.am      1 UNK        -0.4892 
      5 CA         26.3680   -4.7167   -2.5952 C.3       1 UNK         0.0835 
      6 C6         27.7311   -5.4591   -2.5483 C.3       12 UNK        -0.0855 
      7 S7         28.7638   -5.2965   -4.0524 S.3       12 UNK        -0.2931 
      8 C8         30.4367   -5.5516   -3.3733 C.3       12 UNK         0.0378 
      9 C9         31.2762   -4.2780   -3.3536 C.ar      12 UNK        -0.0802 
     10 C10        32.5438   -4.2764   -3.9434 C.ar      12 UNK        -0.0944 
     11 C11        33.3516   -3.1372   -3.8937 C.ar      12 UNK        -0.0787 
     12 C12        32.8796   -1.9883   -3.2538 C.ar      12 UNK        -0.0862 
     13 C13        31.6085   -1.9619   -2.6726 C.ar      12 UNK        -0.0733 
     14 C14        30.8173   -3.1193   -2.7162 C.ar      12 UNK        -0.0832 
     15 C15        31.1493   -0.6877   -1.9631 C.3       12 UNK         0.0240 
     16 S16        29.3476   -0.4088   -2.0170 S.3       12 UNK        -0.2522 
     17 C17        29.1788    1.0987   -3.0260 C.3       12 UNK        -0.0967 
     18 CA         29.0851    0.8458   -4.5523 C.3       5 UNK         0.0660 
     19 N          28.0585   -0.1426   -4.9127 N.am      5 UNK        -0.4015 
     20 C          27.7455   -0.5096   -6.1650 C.2       4 UNK         0.4946 
     21 O          28.3523   -0.1233   -7.1630 O.2       4 UNK        -0.5353 
     22 CA         26.4833   -1.3625   -6.3644 C.3       4 UNK         0.0277 
     23 CB         26.8406   -2.8431   -6.5457 C.3       4 UNK        -0.1981 
     24 N          25.4855   -1.2052   -5.3008 N.am      4 UNK        -0.4209 
     25 C          24.8353   -0.0673   -5.0120 C.2       3 UNK         0.4942 
     26 O          25.0406    1.0019   -5.5873 O.2       3 UNK        -0.5208 
     27 CA         23.8151   -0.1239   -3.8657 C.3       3 UNK         0.0250 
     28 CB         22.4935   -0.7464   -4.3428 C.3       3 UNK        -0.1990 
     29 N          24.3380   -0.8681   -2.7186 N.am      3 UNK        -0.4232 
     30 C          25.2535   -0.3711   -1.8720 C.2       2 UNK         0.4993 
     31 O          25.6536    0.7928   -1.9087 O.2       2 UNK        -0.5286 
     32 CA         25.8437   -1.3273   -0.8182 C.3       2 UNK         0.0209 
     33 CB         25.0669   -1.2124    0.5034 C.3       2 UNK        -0.1931 
     34 N          25.8926   -2.7352   -1.2291 N.am      2 UNK        -0.4546 
     35 C          26.5100   -3.2056   -2.3231 C.2       1 UNK         0.5154 
     36 O          27.1141   -2.4957   -3.1268 O.2       1 UNK        -0.5181 
     37 C          28.9133    2.2025   -5.2803 C.2       5 UNK         0.5014 
     38 O          29.9112    2.8851   -5.5114 O.2       5 UNK        -0.5248 
     39 N          27.6674    2.5670   -5.6227 N.am      6 UNK        -0.4434 
     40 CA         27.3291    3.7424   -6.4231 C.3       6 UNK         0.0363 
     41 CB         26.2735    4.5768   -5.6792 C.3       6 UNK        -0.1936 
     42 C          26.8131    3.3360   -7.8117 C.2       6 UNK         0.5081 
     43 O          27.2570    3.9050   -8.8092 O.2       6 UNK        -0.5248 
     44 N          25.8824    2.3707   -7.8654 N.am      7 UNK        -0.4718 
     45 CA         25.1713    1.9644   -9.0834 C.3       7 UNK         0.0273 
     46 CB         23.9699    1.0804   -8.7108 C.3       7 UNK        -0.1935 
     47 C          26.0509    1.2727  -10.1383 C.2       7 UNK         0.5018 
     48 O          25.7278    1.3548  -11.3237 O.2       7 UNK        -0.5186 
     49 N          27.1482    0.6370   -9.7082 N.am      8 UNK        -0.4240 
     50 CA         28.1757    0.0585  -10.5743 C.3       8 UNK         0.0235 
     51 CB         28.3186   -1.4431  -10.2705 C.3       8 UNK        -0.2000 
     52 C          29.4911    0.8425  -10.4196 C.2       8 UNK         0.4941 
     53 O          30.5725    0.2511  -10.4100 O.2       8 UNK        -0.5273 
     54 N          29.3721    2.1734  -10.2958 N.am      9 UNK        -0.4262 
     55 CA         30.4132    3.2096  -10.2626 C.3       9 UNK         0.0264 
     56 CB         31.2211    3.2254  -11.5752 C.3       9 UNK        -0.1955 
     57 C          31.3540    3.1861   -9.0452 C.2       9 UNK         0.5031 
     58 O          31.7224    4.2612   -8.5685 O.2       9 UNK        -0.5390 
     59 N          31.7439    1.9965   -8.5778 N.am      10 UNK        -0.4204 
     60 CA         32.6643    1.8090   -7.4575 C.3       10 UNK         0.0237 
     61 CB         34.1235    1.9628   -7.9278 C.3       10 UNK        -0.1985 
     62 C          32.4673    0.4707   -6.7385 C.2       10 UNK         0.4970 
     63 O          32.5431    0.4565   -5.5101 O.2       10 UNK        -0.4914 
     64 N          32.2579   -0.6191   -7.4902 N.am      11 UNK        -0.4285 
     65 CA         32.1773   -1.9884   -6.9620 C.3       11 UNK         0.1007 
     66 C          31.0869   -2.7895   -7.7062 C.2       11 UNK         0.5703 
     67 N          30.2560   -3.5313   -6.9867 N.am      11 UNK        -0.7361 
     68 O          31.0384   -2.8015   -8.9335 O.2       11 UNK        -0.4986 
     69 C69        33.5385   -2.7369   -7.0583 C.3       12 UNK        -0.0947 
     70 S70        34.8359   -2.0450   -5.9796 S.3       12 UNK        -0.2240 
     71 C71        34.7344   -3.1465   -4.5323 C.3       12 UNK         0.0194 
     72 H72        22.8933   -5.5036   -5.3309 H         1 UNK         0.0906 
     73 H73        23.5519   -4.0233   -6.0304 H         1 UNK         0.0906 
     74 H74        24.4990   -5.5134   -6.0622 H         1 UNK         0.0906 
     75 H75        26.1419   -5.5040   -4.5264 H         1 UNK         0.3140 
     76 H76        25.7601   -5.1332   -1.7890 H         1 UNK         0.1085 
     77 H77        27.5495   -6.5248   -2.4005 H         1 UNK         0.0836 
     78 H78        28.3016   -5.1403   -1.6736 H         1 UNK         0.0836 
     79 H79        30.9242   -6.3168   -3.9794 H         1 UNK         0.0731 
     80 H80        30.3850   -5.9615   -2.3640 H         1 UNK         0.0731 
     81 H81        32.9093   -5.1682   -4.4342 H         1 UNK         0.1312 
     82 H82        33.5040   -1.1053   -3.2242 H         1 UNK         0.1406 
     83 H83        29.8392   -3.1246   -2.2555 H         1 UNK         0.1631 
     84 H84        31.6637    0.1780   -2.3831 H         1 UNK         0.0717 
     85 H85        31.4553   -0.7491   -0.9183 H         1 UNK         0.0717 
     86 H86        28.2799    1.6118   -2.6773 H         1 UNK         0.0934 
     87 H87        30.0089    1.7703   -2.7979 H         1 UNK         0.0934 
     88 H88        30.0342    0.4224   -4.8804 H         1 UNK         0.0739 
     89 H89        27.5694   -0.5881   -4.1441 H         1 UNK         0.3093 
     90 H90        26.0207   -1.0246   -7.2923 H         1 UNK         0.0818 
     91 H91        27.3238   -3.2532   -5.6597 H         1 UNK         0.0819 
     92 H92        25.9593   -3.4432   -6.7652 H         1 UNK         0.0819 
     93 H93        27.5281   -2.9719   -7.3817 H         1 UNK         0.0819 
     94 H94        25.3345   -2.0065   -4.7050 H         1 UNK         0.3041 
     95 H95        23.6080    0.9019   -3.5523 H         1 UNK         0.0784 
     96 H96        22.0742   -0.1768   -5.1735 H         1 UNK         0.0793 
     97 H97        22.6242   -1.7728   -4.6865 H         1 UNK         0.0793 
     98 H98        21.7490   -0.7529   -3.5466 H         1 UNK         0.0793 
     99 H99        24.0698   -1.8433   -2.6376 H         1 UNK         0.3024 
    100 H100       26.8705   -1.0063   -0.6365 H         1 UNK         0.1171 
    101 H101       25.5362   -1.7992    1.2932 H         1 UNK         0.0786 
    102 H102       25.0348   -0.1777    0.8482 H         1 UNK         0.0786 
    103 H103       24.0360   -1.5525    0.3969 H         1 UNK         0.0786 
    104 H104       25.3862   -3.3848   -0.6447 H         1 UNK         0.2977 
    105 H105       26.9016    1.9375   -5.4079 H         1 UNK         0.3127 
    106 H106       28.2097    4.3708   -6.5731 H         1 UNK         0.0770 
    107 H107       25.3659    4.0042   -5.4830 H         1 UNK         0.0814 
    108 H108       25.9882    5.4542   -6.2612 H         1 UNK         0.0814 
    109 H109       26.6560    4.9331   -4.7226 H         1 UNK         0.0814 
    110 H110       25.5622    1.9395   -6.9990 H         1 UNK         0.2983 
    111 H111       24.7824    2.8739   -9.5470 H         1 UNK         0.0947 
    112 H112       23.3849    0.8249   -9.5954 H         1 UNK         0.0806 
    113 H113       23.3010    1.5914   -8.0180 H         1 UNK         0.0806 
    114 H114       24.2793    0.1451   -8.2463 H         1 UNK         0.0806 
    115 H115       27.3656    0.6234   -8.7151 H         1 UNK         0.3000 
    116 H116       27.8915    0.1532  -11.6242 H         1 UNK         0.0850 
    117 H117       29.0556   -1.9084  -10.9262 H         1 UNK         0.0810 
    118 H118       27.3753   -1.9688  -10.4168 H         1 UNK         0.0810 
    119 H119       28.6423   -1.6176   -9.2457 H         1 UNK         0.0810 
    120 H120       28.4312    2.5404  -10.2143 H         1 UNK         0.3040 
    121 H121       29.8687    4.1538  -10.2056 H         1 UNK         0.0766 
    122 H122       30.5696    3.3439  -12.4409 H         1 UNK         0.0812 
    123 H123       31.7968    2.3092  -11.7108 H         1 UNK         0.0812 
    124 H124       31.9285    4.0557  -11.5864 H         1 UNK         0.0812 
    125 H125       31.3781    1.1719   -9.0501 H         1 UNK         0.3205 
    126 H126       32.4616    2.5859   -6.7164 H         1 UNK         0.0754 
    127 H127       34.8191    1.7970   -7.1038 H         1 UNK         0.0769 
    128 H128       34.3144    2.9641   -8.3141 H         1 UNK         0.0769 
    129 H129       34.3704    1.2474   -8.7131 H         1 UNK         0.0769 
    130 H130       32.1661   -0.5488   -8.4942 H         1 UNK         0.2981 
    131 H131       31.8727   -1.9431   -5.9157 H         1 UNK         0.0541 
    132 H132       30.3126   -3.5577   -5.9800 H         1 UNK         0.3459 
    133 H133       29.5717   -4.0943   -7.4640 H         1 UNK         0.3459 
    134 H134       33.4177   -3.7932   -6.8104 H         1 UNK         0.0612 
    135 H135       33.9091   -2.7139   -8.0846 H         1 UNK         0.0612 
    136 H136       35.4721   -2.8273   -3.7949 H         1 UNK         0.0624 
    137 H137       35.0186   -4.1559   -4.8338 H         1 UNK         0.0624 
@<TRIPOS>BOND
     1    1    2 1    
     2    1   72 1    
     3    1   73 1    
     4    1   74 1    
     5    2    3 2    
     6    2    4 am   BACKBONE|DICT|INTERRES
     7    4    5 1    
     8    4   75 1    
     9    5    6 1    
    10    5   35 1    
    11    5   76 1    
    12    6    7 1    
    13    6   77 1    
    14    6   78 1    
    15    7    8 1    
    16    8    9 1    
    17    8   79 1    
    18    8   80 1    
    19    9   10 ar   
    20    9   14 ar   
    21   10   11 ar   
    22   10   81 1    
    23   11   12 ar   
    24   11   71 1    
    25   12   13 ar   
    26   12   82 1    
    27   13   14 ar   
    28   13   15 1    
    29   14   83 1    
    30   15   16 1    
    31   15   84 1    
    32   15   85 1    
    33   16   17 1    
    34   17   18 1    
    35   17   86 1    
    36   17   87 1    
    37   18   19 1    
    38   18   37 1    
    39   18   88 1    
    40   19   20 am   BACKBONE|DICT|INTERRES
    41   19   89 1    
    42   20   21 2    
    43   20   22 1    
    44   22   23 1    
    45   22   24 1    
    46   22   90 1    
    47   23   91 1    
    48   23   92 1    
    49   23   93 1    
    50   24   25 am   BACKBONE|DICT|INTERRES
    51   24   94 1    
    52   25   26 2    
    53   25   27 1    
    54   27   28 1    
    55   27   29 1    
    56   27   95 1    
    57   28   96 1    
    58   28   97 1    
    59   28   98 1    
    60   29   30 am   BACKBONE|DICT|INTERRES
    61   29   99 1    
    62   30   31 2    
    63   30   32 1    
    64   32   33 1    
    65   32   34 1    
    66   32  100 1    
    67   33  101 1    
    68   33  102 1    
    69   33  103 1    
    70   34   35 am   BACKBONE|DICT|INTERRES
    71   34  104 1    
    72   35   36 2    
    73   37   38 2    
    74   37   39 am   BACKBONE|DICT|INTERRES
    75   39   40 1    
    76   39  105 1    
    77   40   41 1    
    78   40   42 1    
    79   40  106 1    
    80   41  107 1    
    81   41  108 1    
    82   41  109 1    
    83   42   43 2    
    84   42   44 am   BACKBONE|DICT|INTERRES
    85   44   45 1    
    86   44  110 1    
    87   45   46 1    
    88   45   47 1    
    89   45  111 1    
    90   46  112 1    
    91   46  113 1    
    92   46  114 1    
    93   47   48 2    
    94   47   49 am   BACKBONE|DICT|INTERRES
    95   49   50 1    
    96   49  115 1    
    97   50   51 1    
    98   50   52 1    
    99   50  116 1    
   100   51  117 1    
   101   51  118 1    
   102   51  119 1    
   103   52   53 2    
   104   52   54 am   BACKBONE|DICT|INTERRES
   105   54   55 1    
   106   54  120 1    
   107   55   56 1    
   108   55   57 1    
   109   55  121 1    
   110   56  122 1    
   111   56  123 1    
   112   56  124 1    
   113   57   58 2    
   114   57   59 am   BACKBONE|DICT|INTERRES
   115   59   60 1    
   116   59  125 1    
   117   60   61 1    
   118   60   62 1    
   119   60  126 1    
   120   61  127 1    
   121   61  128 1    
   122   61  129 1    
   123   62   63 2    
   124   62   64 am   BACKBONE|DICT|INTERRES
   125   64   65 1    
   126   64  130 1    
   127   65   66 1    
   128   65   69 1    
   129   65  131 1    
   130   66   67 am   BACKBONE|DICT|INTERRES
   131   66   68 2    
   132   67  132 1    
   133   67  133 1    
   134   69   70 1    
   135   69  134 1    
   136   69  135 1    
   137   70   71 1    
   138   71  136 1    
   139   71  137 1    
@<TRIPOS>SUBSTRUCTURE
     1 UNK         1 GROUP             0       ****    0 ROOT    
