@<TRIPOS>MOLECULE
3R137
137   139    1
SMALL
USER_CHARGES


@<TRIPOS>ATOM
      1 CA         25.5762   -0.1028    3.5923 C.3       0 UNK        -0.2020 
      2 C          25.7526   -1.0640    2.4260 C.2       0 UNK         0.4855 
      3 O          25.1589   -2.1428    2.4321 O.2       0 UNK        -0.5197 
      4 N          26.5674   -0.6791    1.4335 N.am      1 UNK        -0.4892 
      5 CA         26.8410   -1.4220    0.1965 C.3       1 UNK         0.0835 
      6 C6         27.5587   -2.7801    0.4611 C.3       12 UNK        -0.0855 
      7 S7         28.4116   -3.4647   -1.0002 S.3       12 UNK        -0.2931 
      8 C8         30.0056   -2.5800   -0.9559 C.3       12 UNK         0.0378 
      9 C9         30.8640   -2.7365   -2.2132 C.ar      12 UNK        -0.0802 
     10 C10        31.9495   -1.8722   -2.3837 C.ar      12 UNK        -0.0944 
     11 C11        32.7972   -1.9914   -3.4886 C.ar      12 UNK        -0.0787 
     12 C12        32.5513   -2.9866   -4.4383 C.ar      12 UNK        -0.0862 
     13 C13        31.4522   -3.8383   -4.3035 C.ar      12 UNK        -0.0733 
     14 C14        30.6224   -3.7175   -3.1861 C.ar      12 UNK        -0.0832 
     15 C15        31.1747   -4.9058   -5.3525 C.3       12 UNK         0.0240 
     16 S16        30.4849   -4.2051   -6.8855 S.3       12 UNK        -0.2522 
     17 C17        28.7887   -3.7367   -6.3890 C.3       12 UNK        -0.0967 
     18 CA         28.2756   -2.5234   -7.2060 C.3       5 UNK         0.0660 
     19 N          26.8166   -2.4384   -7.2352 N.am      5 UNK        -0.4015 
     20 C          26.1218   -2.0128   -8.2996 C.2       4 UNK         0.4946 
     21 O          26.6318   -1.7054   -9.3772 O.2       4 UNK        -0.5353 
     22 CA         24.6014   -1.8528   -8.1192 C.3       4 UNK         0.0277 
     23 CB         23.8946   -3.2122   -8.2419 C.3       4 UNK        -0.1981 
     24 N          24.2349   -1.2197   -6.8505 N.am      4 UNK        -0.4209 
     25 C          24.6823   -0.0284   -6.4277 C.2       3 UNK         0.4942 
     26 O          25.4098    0.7064   -7.0935 O.2       3 UNK        -0.5208 
     27 CA         24.3077    0.4029   -5.0020 C.3       3 UNK         0.0250 
     28 CB         23.0722    1.3158   -5.0285 C.3       3 UNK        -0.1990 
     29 N          24.0815   -0.7019   -4.0630 N.am      3 UNK        -0.4232 
     30 C          24.9591   -1.6724   -3.7724 C.2       2 UNK         0.4993 
     31 O          26.0490   -1.8181   -4.3366 O.2       2 UNK        -0.5286 
     32 CA         24.5554   -2.6468   -2.6582 C.3       2 UNK         0.0209 
     33 CB         24.5478   -4.0954   -3.1741 C.3       2 UNK        -0.1931 
     34 N          25.5056   -2.5310   -1.5570 N.am      2 UNK        -0.4546 
     35 C          25.5910   -1.4924   -0.7172 C.2       1 UNK         0.5154 
     36 O          24.7559   -0.5837   -0.6847 O.2       1 UNK        -0.5181 
     37 C          28.8704   -1.1959   -6.7074 C.2       5 UNK         0.5014 
     38 O          29.7397   -0.6317   -7.3722 O.2       5 UNK        -0.5248 
     39 N          28.3971   -0.7250   -5.5458 N.am      6 UNK        -0.4434 
     40 CA         29.0193    0.3580   -4.7851 C.3       6 UNK         0.0363 
     41 CB         28.4130    0.3855   -3.3724 C.3       6 UNK        -0.1936 
     42 C          28.9358    1.7489   -5.4372 C.2       6 UNK         0.5081 
     43 O          29.8268    2.5628   -5.1930 O.2       6 UNK        -0.5248 
     44 N          27.8829    2.0153   -6.2231 N.am      7 UNK        -0.4718 
     45 CA         27.6134    3.3322   -6.8070 C.3       7 UNK         0.0273 
     46 CB         26.3239    3.9134   -6.2005 C.3       7 UNK        -0.1935 
     47 C          27.5262    3.2799   -8.3362 C.2       7 UNK         0.5018 
     48 O          28.1977    4.0732   -8.9950 O.2       7 UNK        -0.5186 
     49 N          26.7050    2.3689   -8.8786 N.am      8 UNK        -0.4240 
     50 CA         26.4240    2.2651  -10.3139 C.3       8 UNK         0.0235 
     51 CB         25.1744    1.4042  -10.5527 C.3       8 UNK        -0.2000 
     52 C          27.6305    1.7507  -11.1118 C.2       8 UNK         0.4941 
     53 O          28.0574    2.4198  -12.0537 O.2       8 UNK        -0.5273 
     54 N          28.1871    0.6012  -10.7016 N.am      9 UNK        -0.4262 
     55 CA         29.4453    0.0762  -11.2452 C.3       9 UNK         0.0264 
     56 CB         29.5342   -1.4352  -10.9855 C.3       9 UNK        -0.1955 
     57 C          30.6864    0.7844  -10.6715 C.2       9 UNK         0.5031 
     58 O          31.7708    0.6236  -11.2329 O.2       9 UNK        -0.5390 
     59 N          30.5189    1.5186   -9.5595 N.am      10 UNK        -0.4204 
     60 CA         31.5430    2.2514   -8.8033 C.3       10 UNK         0.0237 
     61 CB         31.9992    3.4986   -9.5887 C.3       10 UNK        -0.1985 
     62 C          32.7125    1.3448   -8.3721 C.2       10 UNK         0.4970 
     63 O          33.8768    1.6916   -8.5796 O.2       10 UNK        -0.4914 
     64 N          32.3575    0.1786   -7.8209 N.am      11 UNK        -0.4285 
     65 CA         33.2359   -0.9382   -7.4458 C.3       11 UNK         0.1007 
     66 C          33.8170   -1.7449   -8.6463 C.2       11 UNK         0.5703 
     67 N          33.4744   -1.4521   -9.8959 N.am      11 UNK        -0.7361 
     68 O          34.5755   -2.6891   -8.4388 O.2       11 UNK        -0.4986 
     69 C69        34.3349   -0.5611   -6.4091 C.3       12 UNK        -0.0947 
     70 S70        33.6852    0.2279   -4.8946 S.3       12 UNK        -0.2240 
     71 C71        33.9864   -1.0546   -3.6376 C.3       12 UNK         0.0194 
     72 H72        26.1666    0.8048    3.4680 H         1 UNK         0.0906 
     73 H73        24.5292    0.1846    3.6858 H         1 UNK         0.0906 
     74 H74        25.8825   -0.5811    4.5223 H         1 UNK         0.0906 
     75 H75        26.9923    0.2370    1.4826 H         1 UNK         0.3140 
     76 H76        27.5396   -0.7890   -0.3520 H         1 UNK         0.1085 
     77 H77        28.2989   -2.6616    1.2542 H         1 UNK         0.0836 
     78 H78        26.8509   -3.5240    0.8315 H         1 UNK         0.0836 
     79 H79        30.5766   -2.9301   -0.0949 H         1 UNK         0.0731 
     80 H80        29.8121   -1.5191   -0.7921 H         1 UNK         0.0731 
     81 H81        32.1441   -1.1088   -1.6424 H         1 UNK         0.1312 
     82 H82        33.2102   -3.0960   -5.2879 H         1 UNK         0.1406 
     83 H83        29.7931   -4.4019   -3.0824 H         1 UNK         0.1631 
     84 H84        30.4961   -5.6685   -4.9672 H         1 UNK         0.0717 
     85 H85        32.1057   -5.4213   -5.5924 H         1 UNK         0.0717 
     86 H86        28.1532   -4.6046   -6.5720 H         1 UNK         0.0934 
     87 H87        28.7343   -3.5484   -5.3154 H         1 UNK         0.0934 
     88 H88        28.6205   -2.6704   -8.2300 H         1 UNK         0.0739 
     89 H89        26.3319   -2.5824   -6.3576 H         1 UNK         0.3093 
     90 H90        24.2363   -1.2089   -8.9207 H         1 UNK         0.0818 
     91 H91        22.8106   -3.0999   -8.2157 H         1 UNK         0.0819 
     92 H92        24.1445   -3.6966   -9.1871 H         1 UNK         0.0819 
     93 H93        24.1815   -3.8942   -7.4404 H         1 UNK         0.0819 
     94 H94        23.6369   -1.7474   -6.2321 H         1 UNK         0.3041 
     95 H95        25.1487    0.9830   -4.6167 H         1 UNK         0.0784 
     96 H96        23.2206    2.1567   -5.7077 H         1 UNK         0.0793 
     97 H97        22.1817    0.7814   -5.3621 H         1 UNK         0.0793 
     98 H98        22.8654    1.7331   -4.0428 H         1 UNK         0.0793 
     99 H99        23.2205   -0.6625   -3.5359 H         1 UNK         0.3024 
    100 H100       23.5564   -2.4002   -2.2913 H         1 UNK         0.1171 
    101 H101       25.5302   -4.4029   -3.5360 H         1 UNK         0.0786 
    102 H102       24.2478   -4.7923   -2.3913 H         1 UNK         0.0786 
    103 H103       23.8444   -4.2127   -3.9995 H         1 UNK         0.0786 
    104 H104       26.2744   -3.1907   -1.5532 H         1 UNK         0.2977 
    105 H105       27.6288   -1.2112   -5.0866 H         1 UNK         0.3127 
    106 H106       30.0803    0.1143   -4.6873 H         1 UNK         0.0770 
    107 H107       27.3479    0.6180   -3.3949 H         1 UNK         0.0814 
    108 H108       28.9008    1.1387   -2.7523 H         1 UNK         0.0814 
    109 H109       28.5349   -0.5757   -2.8728 H         1 UNK         0.0814 
    110 H110       27.1977    1.2896   -6.4056 H         1 UNK         0.2983 
    111 H111       28.4220    4.0271   -6.5695 H         1 UNK         0.0947 
    112 H112       26.1122    4.9020   -6.6101 H         1 UNK         0.0806 
    113 H113       26.4120    4.0236   -5.1196 H         1 UNK         0.0806 
    114 H114       25.4556    3.2862   -6.4013 H         1 UNK         0.0806 
    115 H115       26.1839    1.7478   -8.2589 H         1 UNK         0.3000 
    116 H116       26.1996    3.2712  -10.6759 H         1 UNK         0.0850 
    117 H117       24.9158    1.3799  -11.6120 H         1 UNK         0.0810 
    118 H118       24.3114    1.7984  -10.0157 H         1 UNK         0.0810 
    119 H119       25.3248    0.3756  -10.2330 H         1 UNK         0.0810 
    120 H120       27.7309    0.0516   -9.9806 H         1 UNK         0.3040 
    121 H121       29.4492    0.2301  -12.3265 H         1 UNK         0.0766 
    122 H122       29.6578   -1.6502   -9.9257 H         1 UNK         0.0812 
    123 H123       30.3923   -1.8677  -11.5016 H         1 UNK         0.0812 
    124 H124       28.6449   -1.9578  -11.3381 H         1 UNK         0.0812 
    125 H125       29.5894    1.5380   -9.1659 H         1 UNK         0.3205 
    126 H126       31.0644    2.5940   -7.8844 H         1 UNK         0.0754 
    127 H127       32.6891    4.1024   -8.9979 H         1 UNK         0.0769 
    128 H128       31.1510    4.1337   -9.8455 H         1 UNK         0.0769 
    129 H129       32.5094    3.2296  -10.5142 H         1 UNK         0.0769 
    130 H130       31.3634   -0.0217   -7.7097 H         1 UNK         0.2981 
    131 H131       32.5606   -1.6410   -6.9596 H         1 UNK         0.0541 
    132 H132       32.8740   -0.6652  -10.1134 H         1 UNK         0.3459 
    133 H133       33.8598   -2.0032  -10.6456 H         1 UNK         0.3459 
    134 H134       35.0616    0.1193   -6.8543 H         1 UNK         0.0612 
    135 H135       34.9064   -1.4463   -6.1279 H         1 UNK         0.0612 
    136 H136       34.1899   -0.5552   -2.6891 H         1 UNK         0.0624 
    137 H137       34.8876   -1.6229   -3.8706 H         1 UNK         0.0624 
@<TRIPOS>BOND
     1    1    2 1    
     2    1   72 1    
     3    1   73 1    
     4    1   74 1    
     5    2    3 2    
     6    2    4 am   BACKBONE|DICT|INTERRES
     7    4    5 1    
     8    4   75 1    
     9    5    6 1    
    10    5   35 1    
    11    5   76 1    
    12    6    7 1    
    13    6   77 1    
    14    6   78 1    
    15    7    8 1    
    16    8    9 1    
    17    8   79 1    
    18    8   80 1    
    19    9   10 ar   
    20    9   14 ar   
    21   10   11 ar   
    22   10   81 1    
    23   11   12 ar   
    24   11   71 1    
    25   12   13 ar   
    26   12   82 1    
    27   13   14 ar   
    28   13   15 1    
    29   14   83 1    
    30   15   16 1    
    31   15   84 1    
    32   15   85 1    
    33   16   17 1    
    34   17   18 1    
    35   17   86 1    
    36   17   87 1    
    37   18   19 1    
    38   18   37 1    
    39   18   88 1    
    40   19   20 am   BACKBONE|DICT|INTERRES
    41   19   89 1    
    42   20   21 2    
    43   20   22 1    
    44   22   23 1    
    45   22   24 1    
    46   22   90 1    
    47   23   91 1    
    48   23   92 1    
    49   23   93 1    
    50   24   25 am   BACKBONE|DICT|INTERRES
    51   24   94 1    
    52   25   26 2    
    53   25   27 1    
    54   27   28 1    
    55   27   29 1    
    56   27   95 1    
    57   28   96 1    
    58   28   97 1    
    59   28   98 1    
    60   29   30 am   BACKBONE|DICT|INTERRES
    61   29   99 1    
    62   30   31 2    
    63   30   32 1    
    64   32   33 1    
    65   32   34 1    
    66   32  100 1    
    67   33  101 1    
    68   33  102 1    
    69   33  103 1    
    70   34   35 am   BACKBONE|DICT|INTERRES
    71   34  104 1    
    72   35   36 2    
    73   37   38 2    
    74   37   39 am   BACKBONE|DICT|INTERRES
    75   39   40 1    
    76   39  105 1    
    77   40   41 1    
    78   40   42 1    
    79   40  106 1    
    80   41  107 1    
    81   41  108 1    
    82   41  109 1    
    83   42   43 2    
    84   42   44 am   BACKBONE|DICT|INTERRES
    85   44   45 1    
    86   44  110 1    
    87   45   46 1    
    88   45   47 1    
    89   45  111 1    
    90   46  112 1    
    91   46  113 1    
    92   46  114 1    
    93   47   48 2    
    94   47   49 am   BACKBONE|DICT|INTERRES
    95   49   50 1    
    96   49  115 1    
    97   50   51 1    
    98   50   52 1    
    99   50  116 1    
   100   51  117 1    
   101   51  118 1    
   102   51  119 1    
   103   52   53 2    
   104   52   54 am   BACKBONE|DICT|INTERRES
   105   54   55 1    
   106   54  120 1    
   107   55   56 1    
   108   55   57 1    
   109   55  121 1    
   110   56  122 1    
   111   56  123 1    
   112   56  124 1    
   113   57   58 2    
   114   57   59 am   BACKBONE|DICT|INTERRES
   115   59   60 1    
   116   59  125 1    
   117   60   61 1    
   118   60   62 1    
   119   60  126 1    
   120   61  127 1    
   121   61  128 1    
   122   61  129 1    
   123   62   63 2    
   124   62   64 am   BACKBONE|DICT|INTERRES
   125   64   65 1    
   126   64  130 1    
   127   65   66 1    
   128   65   69 1    
   129   65  131 1    
   130   66   67 am   BACKBONE|DICT|INTERRES
   131   66   68 2    
   132   67  132 1    
   133   67  133 1    
   134   69   70 1    
   135   69  134 1    
   136   69  135 1    
   137   70   71 1    
   138   71  136 1    
   139   71  137 1    
@<TRIPOS>SUBSTRUCTURE
     1 UNK         1 GROUP             0       ****    0 ROOT    
