@<TRIPOS>MOLECULE
3R137
137   139    1
SMALL
USER_CHARGES


@<TRIPOS>ATOM
      1 CA         28.5032   -4.9795    1.3896 C.3       0 UNK        -0.2020 
      2 C          28.1972   -3.9702    0.2940 C.2       0 UNK         0.4855 
      3 O          27.6811   -4.3521   -0.7563 O.2       0 UNK        -0.5197 
      4 N          28.5108   -2.6891    0.5350 N.am      1 UNK        -0.4892 
      5 CA         28.3415   -1.5212   -0.3478 C.3       1 UNK         0.0835 
      6 C6         29.1292   -1.6114   -1.6836 C.3       12 UNK        -0.0855 
      7 S7         30.9422   -1.6160   -1.4342 S.3       12 UNK        -0.2931 
      8 C8         31.4131   -3.3641   -1.6688 C.3       12 UNK         0.0378 
      9 C9         31.1525   -3.8443   -3.0889 C.ar      12 UNK        -0.0802 
     10 C10        32.0065   -3.4766   -4.1330 C.ar      12 UNK        -0.0944 
     11 C11        31.7215   -3.8547   -5.4497 C.ar      12 UNK        -0.0787 
     12 C12        30.5926   -4.6380   -5.7120 C.ar      12 UNK        -0.0862 
     13 C13        29.7366   -5.0151   -4.6724 C.ar      12 UNK        -0.0733 
     14 C14        30.0335   -4.6325   -3.3631 C.ar      12 UNK        -0.0832 
     15 C15        28.4349   -5.7477   -4.9621 C.3       12 UNK         0.0240 
     16 S16        27.2250   -4.7281   -5.8811 S.3       12 UNK        -0.2522 
     17 C17        27.4750   -3.0259   -5.2546 C.3       12 UNK        -0.0967 
     18 CA         26.9375   -1.9941   -6.2725 C.3       5 UNK         0.0660 
     19 N          25.4860   -1.8453   -6.1829 N.am      5 UNK        -0.4015 
     20 C          24.6842   -1.5222   -7.2048 C.2       4 UNK         0.4946 
     21 O          25.0723   -1.3694   -8.3631 O.2       4 UNK        -0.5353 
     22 CA         23.1911   -1.3267   -6.8817 C.3       4 UNK         0.0277 
     23 CB         22.4263   -2.6483   -7.0595 C.3       4 UNK        -0.1981 
     24 N          22.9475   -0.8015   -5.5342 N.am      4 UNK        -0.4209 
     25 C          23.2961    0.4278   -5.1297 C.2       3 UNK         0.4942 
     26 O          23.8433    1.2571   -5.8560 O.2       3 UNK        -0.5208 
     27 CA         23.0316    0.7773   -3.6536 C.3       3 UNK         0.0250 
     28 CB         21.5806    1.2498   -3.4679 C.3       3 UNK        -0.1990 
     29 N          23.3278   -0.2903   -2.6858 N.am      3 UNK        -0.4232 
     30 C          24.4768   -0.9765   -2.6014 C.2       2 UNK         0.4993 
     31 O          25.3786   -0.9090   -3.4376 O.2       2 UNK        -0.5286 
     32 CA         24.6353   -1.9296   -1.4056 C.3       2 UNK         0.0209 
     33 CB         24.0453   -3.3076   -1.7460 C.3       2 UNK        -0.1931 
     34 N          26.0413   -2.1024   -1.0264 N.am      2 UNK        -0.4546 
     35 C          26.8630   -1.1400   -0.5873 C.2       1 UNK         0.5154 
     36 O          26.4942    0.0120   -0.3513 O.2       1 UNK        -0.5181 
     37 C          27.6336   -0.6305   -6.1220 C.2       5 UNK         0.5014 
     38 O          28.5930   -0.3704   -6.8430 O.2       5 UNK        -0.5248 
     39 N          27.1275    0.2388   -5.2364 N.am      6 UNK        -0.4434 
     40 CA         27.6096    1.6112   -5.0506 C.3       6 UNK         0.0363 
     41 CB         26.8570    2.2653   -3.8824 C.3       6 UNK        -0.1936 
     42 C          27.4957    2.4709   -6.3245 C.2       6 UNK         0.5081 
     43 O          28.3485    3.3276   -6.5572 O.2       6 UNK        -0.5248 
     44 N          26.4655    2.2029   -7.1371 N.am      7 UNK        -0.4718 
     45 CA         26.2328    2.8200   -8.4430 C.3       7 UNK         0.0273 
     46 CB         24.7335    2.7059   -8.7690 C.3       7 UNK        -0.1935 
     47 C          27.0785    2.2263   -9.5899 C.2       7 UNK         0.5018 
     48 O          27.0166    2.7656  -10.6969 O.2       7 UNK        -0.5186 
     49 N          27.8179    1.1319   -9.3510 N.am      8 UNK        -0.4240 
     50 CA         28.6517    0.4675  -10.3595 C.3       8 UNK         0.0235 
     51 CB         28.8995   -0.9921   -9.9367 C.3       8 UNK        -0.2000 
     52 C          29.9829    1.2055  -10.5917 C.2       8 UNK         0.4941 
     53 O          30.3187    2.1450   -9.8660 O.2       8 UNK        -0.5273 
     54 N          30.7325    0.7551  -11.6066 N.am      9 UNK        -0.4262 
     55 CA         32.0621    1.2660  -11.9471 C.3       9 UNK         0.0264 
     56 CB         32.5500    0.5956  -13.2417 C.3       9 UNK        -0.1955 
     57 C          33.0713    1.0394  -10.8077 C.2       9 UNK         0.5031 
     58 O          33.1254   -0.0611  -10.2537 O.2       9 UNK        -0.5390 
     59 N          33.8480    2.0845  -10.4945 N.am      10 UNK        -0.4204 
     60 CA         34.8676    2.1857   -9.4420 C.3       10 UNK         0.0237 
     61 CB         36.0060    1.1634   -9.6390 C.3       10 UNK        -0.1985 
     62 C          34.3045    2.1381   -8.0098 C.2       10 UNK         0.4970 
     63 O          34.5388    3.0789   -7.2500 O.2       10 UNK        -0.4914 
     64 N          33.5987    1.0575   -7.6585 N.am      11 UNK        -0.4285 
     65 CA         33.0193    0.8357   -6.3240 C.3       11 UNK         0.1007 
     66 C          31.6950    1.5974   -6.0306 C.2       11 UNK         0.5703 
     67 N          31.0224    2.1876   -7.0093 N.am      11 UNK        -0.7361 
     68 O          31.2947    1.6906   -4.8730 O.2       11 UNK        -0.4986 
     69 C69        32.9450   -0.6693   -5.9508 C.3       12 UNK        -0.0947 
     70 S70        32.1226   -1.7317   -7.1865 S.3       12 UNK        -0.2240 
     71 C71        32.6073   -3.3875   -6.5959 C.3       12 UNK         0.0194 
     72 H72        29.1837   -5.7433    1.0142 H         1 UNK         0.0906 
     73 H73        27.5856   -5.4702    1.7132 H         1 UNK         0.0906 
     74 H74        28.9642   -4.5129    2.2598 H         1 UNK         0.0906 
     75 H75        28.9107   -2.4629    1.4357 H         1 UNK         0.3140 
     76 H76        28.7639   -0.6833    0.2102 H         1 UNK         0.1085 
     77 H77        28.9049   -0.7464   -2.3118 H         1 UNK         0.0836 
     78 H78        28.8155   -2.4768   -2.2651 H         1 UNK         0.0836 
     79 H79        32.4742   -3.4747   -1.4412 H         1 UNK         0.0731 
     80 H80        30.8835   -3.9842   -0.9450 H         1 UNK         0.0731 
     81 H81        32.8721   -2.8639   -3.9230 H         1 UNK         0.1312 
     82 H82        30.3494   -4.9109   -6.7300 H         1 UNK         0.1406 
     83 H83        29.3631   -4.9075   -2.5612 H         1 UNK         0.1631 
     84 H84        27.9678   -6.0803   -4.0337 H         1 UNK         0.0717 
     85 H85        28.6468   -6.6506   -5.5362 H         1 UNK         0.0717 
     86 H86        26.9996   -2.9199   -4.2777 H         1 UNK         0.0934 
     87 H87        28.5369   -2.8458   -5.0911 H         1 UNK         0.0934 
     88 H88        27.1908   -2.3464   -7.2755 H         1 UNK         0.0739 
     89 H89        25.0997   -1.8685   -5.2472 H         1 UNK         0.3093 
     90 H90        22.7951   -0.6037   -7.5985 H         1 UNK         0.0818 
     91 H91        22.5700   -3.0488   -8.0641 H         1 UNK         0.0819 
     92 H92        22.7635   -3.4096   -6.3547 H         1 UNK         0.0819 
     93 H93        21.3542   -2.5095   -6.9189 H         1 UNK         0.0819 
     94 H94        22.5044   -1.4194   -4.8698 H         1 UNK         0.3041 
     95 H95        23.6863    1.6136   -3.4032 H         1 UNK         0.0784 
     96 H96        21.3397    2.0552   -4.1636 H         1 UNK         0.0793 
     97 H97        20.8666    0.4439   -3.6424 H         1 UNK         0.0793 
     98 H98        21.4134    1.6354   -2.4619 H         1 UNK         0.0793 
     99 H99        22.6306   -0.4393   -1.9701 H         1 UNK         0.3024 
    100 H100       24.1056   -1.5089   -0.5483 H         1 UNK         0.1171 
    101 H101       24.5585   -3.7663   -2.5927 H         1 UNK         0.0786 
    102 H102       24.1220   -3.9910   -0.9000 H         1 UNK         0.0786 
    103 H103       22.9884   -3.2324   -2.0051 H         1 UNK         0.0786 
    104 H104       26.4504   -3.0251   -1.1555 H         1 UNK         0.2977 
    105 H105       26.3755   -0.0756   -4.6229 H         1 UNK         0.3127 
    106 H106       28.6655    1.5494   -4.7842 H         1 UNK         0.0770 
    107 H107       26.9359    1.6701   -2.9719 H         1 UNK         0.0814 
    108 H108       27.2650    3.2527   -3.6634 H         1 UNK         0.0814 
    109 H109       25.7994    2.3940   -4.1109 H         1 UNK         0.0814 
    110 H110       25.7740    1.5299   -6.8255 H         1 UNK         0.2983 
    111 H111       26.4876    3.8799   -8.3754 H         1 UNK         0.0947 
    112 H112       24.4185    1.6640   -8.8450 H         1 UNK         0.0806 
    113 H113       24.4967    3.1902   -9.7173 H         1 UNK         0.0806 
    114 H114       24.1234    3.1835   -8.0019 H         1 UNK         0.0806 
    115 H115       27.8918    0.7771   -8.4034 H         1 UNK         0.3000 
    116 H116       28.1023    0.4587  -11.3034 H         1 UNK         0.0850 
    117 H117       29.3229   -1.5742  -10.7555 H         1 UNK         0.0810 
    118 H118       27.9742   -1.4848   -9.6368 H         1 UNK         0.0810 
    119 H119       29.6012   -1.0567   -9.1041 H         1 UNK         0.0810 
    120 H120       30.4075   -0.0407  -12.1358 H         1 UNK         0.3040 
    121 H121       31.9650    2.3384  -12.1297 H         1 UNK         0.0766 
    122 H122       32.6436   -0.4851  -13.1253 H         1 UNK         0.0812 
    123 H123       33.5298    0.9768  -13.5332 H         1 UNK         0.0812 
    124 H124       31.8694    0.7876  -14.0714 H         1 UNK         0.0812 
    125 H125       33.6899    2.9431  -11.0047 H         1 UNK         0.3205 
    126 H126       35.3084    3.1765   -9.5654 H         1 UNK         0.0754 
    127 H127       35.6630    0.1347   -9.5248 H         1 UNK         0.0769 
    128 H128       36.7989    1.3209   -8.9066 H         1 UNK         0.0769 
    129 H129       36.4553    1.2576  -10.6276 H         1 UNK         0.0769 
    130 H130       33.3981    0.3578   -8.3682 H         1 UNK         0.2981 
    131 H131       33.7254    1.2658   -5.6108 H         1 UNK         0.0541 
    132 H132       31.2853    2.0833   -7.9797 H         1 UNK         0.3459 
    133 H133       30.1576    2.6690   -6.7888 H         1 UNK         0.3459 
    134 H134       32.4468   -0.7995   -4.9889 H         1 UNK         0.0612 
    135 H135       33.9597   -1.0448   -5.8120 H         1 UNK         0.0612 
    136 H136       32.5347   -4.0870   -7.4299 H         1 UNK         0.0624 
    137 H137       33.6551   -3.3866   -6.2924 H         1 UNK         0.0624 
@<TRIPOS>BOND
     1    1    2 1    
     2    1   72 1    
     3    1   73 1    
     4    1   74 1    
     5    2    3 2    
     6    2    4 am   BACKBONE|DICT|INTERRES
     7    4    5 1    
     8    4   75 1    
     9    5    6 1    
    10    5   35 1    
    11    5   76 1    
    12    6    7 1    
    13    6   77 1    
    14    6   78 1    
    15    7    8 1    
    16    8    9 1    
    17    8   79 1    
    18    8   80 1    
    19    9   10 ar   
    20    9   14 ar   
    21   10   11 ar   
    22   10   81 1    
    23   11   12 ar   
    24   11   71 1    
    25   12   13 ar   
    26   12   82 1    
    27   13   14 ar   
    28   13   15 1    
    29   14   83 1    
    30   15   16 1    
    31   15   84 1    
    32   15   85 1    
    33   16   17 1    
    34   17   18 1    
    35   17   86 1    
    36   17   87 1    
    37   18   19 1    
    38   18   37 1    
    39   18   88 1    
    40   19   20 am   BACKBONE|DICT|INTERRES
    41   19   89 1    
    42   20   21 2    
    43   20   22 1    
    44   22   23 1    
    45   22   24 1    
    46   22   90 1    
    47   23   91 1    
    48   23   92 1    
    49   23   93 1    
    50   24   25 am   BACKBONE|DICT|INTERRES
    51   24   94 1    
    52   25   26 2    
    53   25   27 1    
    54   27   28 1    
    55   27   29 1    
    56   27   95 1    
    57   28   96 1    
    58   28   97 1    
    59   28   98 1    
    60   29   30 am   BACKBONE|DICT|INTERRES
    61   29   99 1    
    62   30   31 2    
    63   30   32 1    
    64   32   33 1    
    65   32   34 1    
    66   32  100 1    
    67   33  101 1    
    68   33  102 1    
    69   33  103 1    
    70   34   35 am   BACKBONE|DICT|INTERRES
    71   34  104 1    
    72   35   36 2    
    73   37   38 2    
    74   37   39 am   BACKBONE|DICT|INTERRES
    75   39   40 1    
    76   39  105 1    
    77   40   41 1    
    78   40   42 1    
    79   40  106 1    
    80   41  107 1    
    81   41  108 1    
    82   41  109 1    
    83   42   43 2    
    84   42   44 am   BACKBONE|DICT|INTERRES
    85   44   45 1    
    86   44  110 1    
    87   45   46 1    
    88   45   47 1    
    89   45  111 1    
    90   46  112 1    
    91   46  113 1    
    92   46  114 1    
    93   47   48 2    
    94   47   49 am   BACKBONE|DICT|INTERRES
    95   49   50 1    
    96   49  115 1    
    97   50   51 1    
    98   50   52 1    
    99   50  116 1    
   100   51  117 1    
   101   51  118 1    
   102   51  119 1    
   103   52   53 2    
   104   52   54 am   BACKBONE|DICT|INTERRES
   105   54   55 1    
   106   54  120 1    
   107   55   56 1    
   108   55   57 1    
   109   55  121 1    
   110   56  122 1    
   111   56  123 1    
   112   56  124 1    
   113   57   58 2    
   114   57   59 am   BACKBONE|DICT|INTERRES
   115   59   60 1    
   116   59  125 1    
   117   60   61 1    
   118   60   62 1    
   119   60  126 1    
   120   61  127 1    
   121   61  128 1    
   122   61  129 1    
   123   62   63 2    
   124   62   64 am   BACKBONE|DICT|INTERRES
   125   64   65 1    
   126   64  130 1    
   127   65   66 1    
   128   65   69 1    
   129   65  131 1    
   130   66   67 am   BACKBONE|DICT|INTERRES
   131   66   68 2    
   132   67  132 1    
   133   67  133 1    
   134   69   70 1    
   135   69  134 1    
   136   69  135 1    
   137   70   71 1    
   138   71  136 1    
   139   71  137 1    
@<TRIPOS>SUBSTRUCTURE
     1 UNK         1 GROUP             0       ****    0 ROOT    
