@<TRIPOS>MOLECULE
3R137
137   139    1
SMALL
USER_CHARGES


@<TRIPOS>ATOM
      1 CA         30.3646   -4.9664   -2.8802 C.3       0 UNK        -0.2020 
      2 C          29.5418   -4.4937   -1.6940 C.2       0 UNK         0.4855 
      3 O          29.0440   -5.3226   -0.9312 O.2       0 UNK        -0.5197 
      4 N          29.3919   -3.1711   -1.5263 N.am      1 UNK        -0.4892 
      5 CA         28.5891   -2.5757   -0.4483 C.3       1 UNK         0.0835 
      6 C6         29.0093   -1.1167   -0.1214 C.3       12 UNK        -0.0855 
      7 S7         28.4828    0.1515   -1.3299 S.3       12 UNK        -0.2931 
      8 C8         30.0611    0.6957   -2.0534 C.3       12 UNK         0.0378 
      9 C9         30.6885   -0.3905   -2.9106 C.ar      12 UNK        -0.0802 
     10 C10        31.8893   -0.9926   -2.5281 C.ar      12 UNK        -0.0944 
     11 C11        32.4671   -1.9908   -3.3187 C.ar      12 UNK        -0.0787 
     12 C12        31.8216   -2.3999   -4.4906 C.ar      12 UNK        -0.0862 
     13 C13        30.6133   -1.8105   -4.8752 C.ar      12 UNK        -0.0733 
     14 C14        30.0629   -0.7956   -4.0909 C.ar      12 UNK        -0.0832 
     15 C15        29.8970   -2.2523   -6.1399 C.3       12 UNK         0.0240 
     16 S16        28.2794   -3.0096   -5.7680 S.3       12 UNK        -0.2522 
     17 C17        27.5655   -3.0675   -7.4473 C.3       12 UNK        -0.0967 
     18 CA         26.5383   -1.9588   -7.8060 C.3       5 UNK         0.0660 
     19 N          25.2203   -2.1526   -7.1965 N.am      5 UNK        -0.4015 
     20 C          24.0703   -1.9474   -7.8601 C.2       4 UNK         0.4946 
     21 O          24.0085   -1.6628   -9.0571 O.2       4 UNK        -0.5353 
     22 CA         22.7545   -2.0675   -7.0728 C.3       4 UNK         0.0277 
     23 CB         22.2576   -3.5224   -7.0746 C.3       4 UNK        -0.1981 
     24 N          22.8407   -1.5861   -5.6953 N.am      4 UNK        -0.4209 
     25 C          23.1422   -0.3333   -5.3242 C.2       3 UNK         0.4942 
     26 O          23.3710    0.5871   -6.1092 O.2       3 UNK        -0.5208 
     27 CA         23.2471   -0.0830   -3.8093 C.3       3 UNK         0.0250 
     28 CB         21.8826    0.3374   -3.2401 C.3       3 UNK        -0.1990 
     29 N          23.7623   -1.2306   -3.0507 N.am      3 UNK        -0.4232 
     30 C          24.9388   -1.8343   -3.2716 C.2       2 UNK         0.4993 
     31 O          25.7154   -1.5199   -4.1779 O.2       2 UNK        -0.5286 
     32 CA         25.2738   -3.0314   -2.3798 C.3       2 UNK         0.0209 
     33 CB         25.1070   -4.3408   -3.1691 C.3       2 UNK        -0.1931 
     34 N          26.6614   -2.9127   -1.9472 N.am      2 UNK        -0.4546 
     35 C          27.0681   -2.7275   -0.6839 C.2       1 UNK         0.5154 
     36 O          26.3025   -2.6849    0.2813 O.2       1 UNK        -0.5181 
     37 C          27.0425   -0.5241   -7.5632 C.2       5 UNK         0.5014 
     38 O          27.5911    0.0675   -8.4929 O.2       5 UNK        -0.5248 
     39 N          26.8140    0.0276   -6.3571 N.am      6 UNK        -0.4434 
     40 CA         27.2604    1.3634   -5.9339 C.3       6 UNK         0.0363 
     41 CB         26.8354    1.6181   -4.4809 C.3       6 UNK        -0.1936 
     42 C          26.7658    2.5120   -6.8284 C.2       6 UNK         0.5081 
     43 O          27.4702    3.5103   -6.9803 O.2       6 UNK        -0.5248 
     44 N          25.5747    2.3459   -7.4188 N.am      7 UNK        -0.4718 
     45 CA         25.0020    3.2581   -8.4094 C.3       7 UNK         0.0273 
     46 CB         23.5290    2.8807   -8.6355 C.3       7 UNK        -0.1935 
     47 C          25.7605    3.2816   -9.7518 C.2       7 UNK         0.5018 
     48 O          25.6097    4.2521  -10.4956 O.2       7 UNK        -0.5186 
     49 N          26.5350    2.2289  -10.0515 N.am      8 UNK        -0.4240 
     50 CA         27.2911    2.0773  -11.2931 C.3       8 UNK         0.0235 
     51 CB         27.0778    0.6608  -11.8546 C.3       8 UNK        -0.2000 
     52 C          28.7867    2.3596  -11.0929 C.2       8 UNK         0.4941 
     53 O          29.3666    3.0715  -11.9147 O.2       8 UNK        -0.5273 
     54 N          29.3972    1.8003  -10.0386 N.am      9 UNK        -0.4262 
     55 CA         30.8387    1.8744   -9.7860 C.3       9 UNK         0.0264 
     56 CB         31.5802    0.9033  -10.7303 C.3       9 UNK        -0.1955 
     57 C          31.1542    1.5463   -8.3206 C.2       9 UNK         0.5031 
     58 O          30.2819    1.0767   -7.5920 O.2       9 UNK        -0.5390 
     59 N          32.4121    1.7757   -7.9249 N.am      10 UNK        -0.4204 
     60 CA         32.9782    1.3422   -6.6443 C.3       10 UNK         0.0237 
     61 CB         34.0165    2.3856   -6.1831 C.3       10 UNK        -0.1985 
     62 C          33.5649   -0.0812   -6.7662 C.2       10 UNK         0.4970 
     63 O          33.1568   -0.8438   -7.6454 O.2       10 UNK        -0.4914 
     64 N          34.5154   -0.4206   -5.8853 N.am      11 UNK        -0.4285 
     65 CA         35.1785   -1.7352   -5.8278 C.3       11 UNK         0.1007 
     66 C          36.0525   -2.0994   -7.0648 C.2       11 UNK         0.5703 
     67 N          36.4487   -1.1493   -7.9038 N.am      11 UNK        -0.7361 
     68 O          36.3763   -3.2680   -7.2637 O.2       11 UNK        -0.4986 
     69 C69        35.9991   -1.9282   -4.5233 C.3       12 UNK        -0.0947 
     70 S70        35.1567   -1.4470   -2.9778 S.3       12 UNK        -0.2240 
     71 C71        33.7771   -2.6316   -2.8830 C.3       12 UNK         0.0194 
     72 H72        30.2712   -6.0446   -3.0087 H         1 UNK         0.0906 
     73 H73        30.0244   -4.4932   -3.7995 H         1 UNK         0.0906 
     74 H74        31.4182   -4.7349   -2.7297 H         1 UNK         0.0906 
     75 H75        29.8221   -2.5207   -2.1728 H         1 UNK         0.3140 
     76 H76        28.7989   -3.1559    0.4537 H         1 UNK         0.1085 
     77 H77        30.0902   -1.0659    0.0182 H         1 UNK         0.0836 
     78 H78        28.5856   -0.8312    0.8432 H         1 UNK         0.0836 
     79 H79        29.8797    1.5758   -2.6722 H         1 UNK         0.0731 
     80 H80        30.7370    1.0134   -1.2578 H         1 UNK         0.0731 
     81 H81        32.3827   -0.6821   -1.6170 H         1 UNK         0.1312 
     82 H82        32.2526   -3.1822   -5.0994 H         1 UNK         0.1406 
     83 H83        29.1304   -0.3386   -4.3906 H         1 UNK         0.1631 
     84 H84        30.5046   -2.9610   -6.7046 H         1 UNK         0.0717 
     85 H85        29.7589   -1.3833   -6.7834 H         1 UNK         0.0717 
     86 H86        28.3814   -3.0478   -8.1723 H         1 UNK         0.0934 
     87 H87        27.1007   -4.0460   -7.5769 H         1 UNK         0.0934 
     88 H88        26.4223   -2.0390   -8.8894 H         1 UNK         0.0739 
     89 H89        25.2029   -2.3308   -6.2001 H         1 UNK         0.3093 
     90 H90        22.0119   -1.4519   -7.5853 H         1 UNK         0.0818 
     91 H91        21.2761   -3.6082   -6.6078 H         1 UNK         0.0819 
     92 H92        22.1624   -3.9003   -8.0937 H         1 UNK         0.0819 
     93 H93        22.9424   -4.1855   -6.5443 H         1 UNK         0.0819 
     94 H94        22.6689   -2.2634   -4.9672 H         1 UNK         0.3041 
     95 H95        23.9409    0.7434   -3.6583 H         1 UNK         0.0784 
     96 H96        21.4877    1.2029   -3.7745 H         1 UNK         0.0793 
     97 H97        21.1446   -0.4614   -3.3236 H         1 UNK         0.0793 
     98 H98        21.9592    0.6169   -2.1892 H         1 UNK         0.0793 
     99 H99        23.1804   -1.5621   -2.2945 H         1 UNK         0.3024 
    100 H100       24.5989   -3.0472   -1.5211 H         1 UNK         0.1171 
    101 H101       24.0785   -4.4666   -3.5096 H         1 UNK         0.0786 
    102 H102       25.3527   -5.2058   -2.5527 H         1 UNK         0.0786 
    103 H103       25.7501   -4.3676   -4.0504 H         1 UNK         0.0786 
    104 H104       27.3483   -2.8569   -2.6869 H         1 UNK         0.2977 
    105 H105       26.3771   -0.5439   -5.6363 H         1 UNK         0.3127 
    106 H106       28.3497    1.3618   -5.9697 H         1 UNK         0.0770 
    107 H107       25.7629    1.7880   -4.4049 H         1 UNK         0.0814 
    108 H108       27.3313    2.5039   -4.0823 H         1 UNK         0.0814 
    109 H109       27.0900    0.7828   -3.8310 H         1 UNK         0.0814 
    110 H110       25.0267    1.5265   -7.1792 H         1 UNK         0.2983 
    111 H111       25.0395    4.2694   -7.9986 H         1 UNK         0.0947 
    112 H112       23.0579    3.5492   -9.3575 H         1 UNK         0.0806 
    113 H113       22.9561    2.9486   -7.7104 H         1 UNK         0.0806 
    114 H114       23.4286    1.8630   -9.0160 H         1 UNK         0.0806 
    115 H115       26.6636    1.4961   -9.3587 H         1 UNK         0.3000 
    116 H116       26.9226    2.7821  -12.0418 H         1 UNK         0.0850 
    117 H117       27.6136    0.5308  -12.7959 H         1 UNK         0.0810 
    118 H118       26.0231    0.4691  -12.0527 H         1 UNK         0.0810 
    119 H119       27.4334   -0.1092  -11.1693 H         1 UNK         0.0810 
    120 H120       28.8687    1.2442   -9.3664 H         1 UNK         0.3040 
    121 H121       31.1765    2.8959   -9.9740 H         1 UNK         0.0766 
    122 H122       32.6587    0.9341  -10.5726 H         1 UNK         0.0812 
    123 H123       31.4068    1.1485  -11.7780 H         1 UNK         0.0812 
    124 H124       31.2590   -0.1270  -10.5709 H         1 UNK         0.0812 
    125 H125       33.0694    2.1317   -8.6035 H         1 UNK         0.3205 
    126 H126       32.1866    1.2973   -5.8926 H         1 UNK         0.0754 
    127 H127       34.3546    2.1928   -5.1643 H         1 UNK         0.0769 
    128 H128       33.5904    3.3892   -6.1840 H         1 UNK         0.0769 
    129 H129       34.8953    2.3984   -6.8294 H         1 UNK         0.0769 
    130 H130       34.7984    0.2450   -5.1823 H         1 UNK         0.2981 
    131 H131       34.3810   -2.4781   -5.8170 H         1 UNK         0.0541 
    132 H132       36.1886   -0.1892   -7.7484 H         1 UNK         0.3459 
    133 H133       37.0118   -1.3985   -8.7014 H         1 UNK         0.3459 
    134 H134       36.9192   -1.3428   -4.5739 H         1 UNK         0.0612 
    135 H135       36.3124   -2.9692   -4.4237 H         1 UNK         0.0612 
    136 H136       34.0010   -3.5201   -3.4751 H         1 UNK         0.0624 
    137 H137       33.6781   -2.9698   -1.8507 H         1 UNK         0.0624 
@<TRIPOS>BOND
     1    1    2 1    
     2    1   72 1    
     3    1   73 1    
     4    1   74 1    
     5    2    3 2    
     6    2    4 am   BACKBONE|DICT|INTERRES
     7    4    5 1    
     8    4   75 1    
     9    5    6 1    
    10    5   35 1    
    11    5   76 1    
    12    6    7 1    
    13    6   77 1    
    14    6   78 1    
    15    7    8 1    
    16    8    9 1    
    17    8   79 1    
    18    8   80 1    
    19    9   10 ar   
    20    9   14 ar   
    21   10   11 ar   
    22   10   81 1    
    23   11   12 ar   
    24   11   71 1    
    25   12   13 ar   
    26   12   82 1    
    27   13   14 ar   
    28   13   15 1    
    29   14   83 1    
    30   15   16 1    
    31   15   84 1    
    32   15   85 1    
    33   16   17 1    
    34   17   18 1    
    35   17   86 1    
    36   17   87 1    
    37   18   19 1    
    38   18   37 1    
    39   18   88 1    
    40   19   20 am   BACKBONE|DICT|INTERRES
    41   19   89 1    
    42   20   21 2    
    43   20   22 1    
    44   22   23 1    
    45   22   24 1    
    46   22   90 1    
    47   23   91 1    
    48   23   92 1    
    49   23   93 1    
    50   24   25 am   BACKBONE|DICT|INTERRES
    51   24   94 1    
    52   25   26 2    
    53   25   27 1    
    54   27   28 1    
    55   27   29 1    
    56   27   95 1    
    57   28   96 1    
    58   28   97 1    
    59   28   98 1    
    60   29   30 am   BACKBONE|DICT|INTERRES
    61   29   99 1    
    62   30   31 2    
    63   30   32 1    
    64   32   33 1    
    65   32   34 1    
    66   32  100 1    
    67   33  101 1    
    68   33  102 1    
    69   33  103 1    
    70   34   35 am   BACKBONE|DICT|INTERRES
    71   34  104 1    
    72   35   36 2    
    73   37   38 2    
    74   37   39 am   BACKBONE|DICT|INTERRES
    75   39   40 1    
    76   39  105 1    
    77   40   41 1    
    78   40   42 1    
    79   40  106 1    
    80   41  107 1    
    81   41  108 1    
    82   41  109 1    
    83   42   43 2    
    84   42   44 am   BACKBONE|DICT|INTERRES
    85   44   45 1    
    86   44  110 1    
    87   45   46 1    
    88   45   47 1    
    89   45  111 1    
    90   46  112 1    
    91   46  113 1    
    92   46  114 1    
    93   47   48 2    
    94   47   49 am   BACKBONE|DICT|INTERRES
    95   49   50 1    
    96   49  115 1    
    97   50   51 1    
    98   50   52 1    
    99   50  116 1    
   100   51  117 1    
   101   51  118 1    
   102   51  119 1    
   103   52   53 2    
   104   52   54 am   BACKBONE|DICT|INTERRES
   105   54   55 1    
   106   54  120 1    
   107   55   56 1    
   108   55   57 1    
   109   55  121 1    
   110   56  122 1    
   111   56  123 1    
   112   56  124 1    
   113   57   58 2    
   114   57   59 am   BACKBONE|DICT|INTERRES
   115   59   60 1    
   116   59  125 1    
   117   60   61 1    
   118   60   62 1    
   119   60  126 1    
   120   61  127 1    
   121   61  128 1    
   122   61  129 1    
   123   62   63 2    
   124   62   64 am   BACKBONE|DICT|INTERRES
   125   64   65 1    
   126   64  130 1    
   127   65   66 1    
   128   65   69 1    
   129   65  131 1    
   130   66   67 am   BACKBONE|DICT|INTERRES
   131   66   68 2    
   132   67  132 1    
   133   67  133 1    
   134   69   70 1    
   135   69  134 1    
   136   69  135 1    
   137   70   71 1    
   138   71  136 1    
   139   71  137 1    
@<TRIPOS>SUBSTRUCTURE
     1 UNK         1 GROUP             0       ****    0 ROOT    
