@<TRIPOS>MOLECULE
3R137
137   139    1
SMALL
USER_CHARGES


@<TRIPOS>ATOM
      1 CA         25.3667   -4.7482   -2.6695 C.3       0 UNK        -0.2020 
      2 C          26.0894   -4.0012   -1.5607 C.2       0 UNK         0.4855 
      3 O          25.4375   -3.3471   -0.7462 O.2       0 UNK        -0.5197 
      4 N          27.4240   -4.1148   -1.5049 N.am      1 UNK        -0.4892 
      5 CA         28.2679   -3.4713   -0.4880 C.3       1 UNK         0.0835 
      6 C6         29.6776   -4.1076   -0.3422 C.3       12 UNK        -0.0855 
      7 S7         29.6630   -5.9326   -0.4849 S.3       12 UNK        -0.2931 
      8 C8         30.8816   -6.2619   -1.8040 C.3       12 UNK         0.0378 
      9 C9         30.6744   -5.4228   -3.0614 C.ar      12 UNK        -0.0802 
     10 C10        31.5700   -4.3892   -3.3558 C.ar      12 UNK        -0.0944 
     11 C11        31.4282   -3.6319   -4.5203 C.ar      12 UNK        -0.0787 
     12 C12        30.3883   -3.9268   -5.4034 C.ar      12 UNK        -0.0862 
     13 C13        29.4654   -4.9369   -5.1126 C.ar      12 UNK        -0.0733 
     14 C14        29.6176   -5.6884   -3.9405 C.ar      12 UNK        -0.0832 
     15 C15        28.3230   -5.2269   -6.0800 C.3       12 UNK         0.0240 
     16 S16        26.8697   -4.1657   -5.7776 S.3       12 UNK        -0.2522 
     17 C17        27.4912   -2.5277   -6.2748 C.3       12 UNK        -0.0967 
     18 CA         26.4207   -1.6204   -6.9257 C.3       5 UNK         0.0660 
     19 N          25.2951   -1.3228   -6.0347 N.am      5 UNK        -0.4015 
     20 C          24.1098   -0.8579   -6.4585 C.2       4 UNK         0.4946 
     21 O          23.8354   -0.6770   -7.6457 O.2       4 UNK        -0.5353 
     22 CA         23.0525   -0.5138   -5.3923 C.3       4 UNK         0.0277 
     23 CB         22.1563   -1.7318   -5.1160 C.3       4 UNK        -0.1981 
     24 N          23.6185   -0.0345   -4.1293 N.am      4 UNK        -0.4209 
     25 C          24.3436    1.0830   -3.9807 C.2       3 UNK         0.4942 
     26 O          24.5755    1.8726   -4.8952 O.2       3 UNK        -0.5208 
     27 CA         24.9617    1.3419   -2.5922 C.3       3 UNK         0.0250 
     28 CB         24.2208    0.6218   -1.4421 C.3       3 UNK        -0.1990 
     29 N          26.3947    1.0150   -2.5473 N.am      3 UNK        -0.4232 
     30 C          26.9608   -0.1494   -2.8992 C.2       2 UNK         0.4993 
     31 O          26.3405   -1.0882   -3.4037 O.2       2 UNK        -0.5286 
     32 CA         28.4713   -0.3277   -2.6753 C.3       2 UNK         0.0209 
     33 CB         29.1862    0.8410   -1.9585 C.3       2 UNK        -0.1931 
     34 N          28.6948   -1.6185   -2.0159 N.am      2 UNK        -0.4546 
     35 C          28.3561   -1.9582   -0.7606 C.2       1 UNK         0.5154 
     36 O          28.0631   -1.1592    0.1301 O.2       1 UNK        -0.5181 
     37 C          27.1010   -0.3366   -7.4347 C.2       5 UNK         0.5014 
     38 O          27.6267   -0.3427   -8.5479 O.2       5 UNK        -0.5248 
     39 N          27.0975    0.7357   -6.6268 N.am      6 UNK        -0.4434 
     40 CA         27.8409    1.9805   -6.8669 C.3       6 UNK         0.0363 
     41 CB         27.7976    2.8536   -5.6021 C.3       6 UNK        -0.1936 
     42 C          27.3941    2.7813   -8.1048 C.2       6 UNK         0.5081 
     43 O          28.0952    3.7093   -8.5076 O.2       6 UNK        -0.5248 
     44 N          26.2600    2.4005   -8.7064 N.am      7 UNK        -0.4718 
     45 CA         25.8029    2.8812  -10.0096 C.3       7 UNK         0.0273 
     46 CB         24.3403    2.4514  -10.2090 C.3       7 UNK        -0.1935 
     47 C          26.6739    2.3898  -11.1848 C.2       7 UNK         0.5018 
     48 O          26.6250    3.0084  -12.2491 O.2       7 UNK        -0.5186 
     49 N          27.4336    1.3001  -10.9913 N.am      8 UNK        -0.4240 
     50 CA         28.2929    0.6943  -12.0121 C.3       8 UNK         0.0235 
     51 CB         27.6000   -0.5532  -12.5866 C.3       8 UNK        -0.2000 
     52 C          29.6930    0.3404  -11.4867 C.2       8 UNK         0.4941 
     53 O          30.6607    0.4874  -12.2352 O.2       8 UNK        -0.5273 
     54 N          29.7918   -0.1420  -10.2407 N.am      9 UNK        -0.4262 
     55 CA         31.0442   -0.5653   -9.6134 C.3       9 UNK         0.0264 
     56 CB         30.7248   -1.4584   -8.4040 C.3       9 UNK        -0.1955 
     57 C          31.9029    0.6287   -9.1730 C.2       9 UNK         0.5031 
     58 O          31.3662    1.6748   -8.7996 O.2       9 UNK        -0.5390 
     59 N          33.2264    0.4180   -9.1568 N.am      10 UNK        -0.4204 
     60 CA         34.2418    1.4012   -8.7586 C.3       10 UNK         0.0237 
     61 CB         35.6396    0.8169   -9.0216 C.3       10 UNK        -0.1985 
     62 C          34.1293    1.8873   -7.3010 C.2       10 UNK         0.4970 
     63 O          34.6061    2.9823   -6.9999 O.2       10 UNK        -0.4914 
     64 N          33.4969    1.0853   -6.4342 N.am      11 UNK        -0.4285 
     65 CA         33.1323    1.4618   -5.0618 C.3       11 UNK         0.1007 
     66 C          31.9559    2.4796   -4.9534 C.2       11 UNK         0.5703 
     67 N          31.2625    2.8242   -6.0331 N.am      11 UNK        -0.7361 
     68 O          31.6820    2.9843   -3.8674 O.2       11 UNK        -0.4986 
     69 C69        32.9333    0.2156   -4.1598 C.3       12 UNK        -0.0947 
     70 S70        31.5686   -0.8815   -4.6822 S.3       12 UNK        -0.2240 
     71 C71        32.3966   -2.4971   -4.8222 C.3       12 UNK         0.0194 
     72 H72        24.5365   -5.3224   -2.2593 H         1 UNK         0.0906 
     73 H73        24.9664   -4.0394   -3.3941 H         1 UNK         0.0906 
     74 H74        26.0280   -5.4395   -3.1910 H         1 UNK         0.0906 
     75 H75        27.9127   -4.6850   -2.1800 H         1 UNK         0.3140 
     76 H76        27.7617   -3.5958    0.4724 H         1 UNK         0.1085 
     77 H77        30.3770   -3.6861   -1.0623 H         1 UNK         0.0836 
     78 H78        30.0924   -3.8510    0.6342 H         1 UNK         0.0836 
     79 H79        31.8817   -6.1001   -1.3986 H         1 UNK         0.0731 
     80 H80        30.8343   -7.3194   -2.0678 H         1 UNK         0.0731 
     81 H81        32.3827   -4.1742   -2.6751 H         1 UNK         0.1312 
     82 H82        30.2968   -3.3539   -6.3131 H         1 UNK         0.1406 
     83 H83        28.9230   -6.4873   -3.7171 H         1 UNK         0.1631 
     84 H84        28.0159   -6.2697   -5.9885 H         1 UNK         0.0717 
     85 H85        28.6594   -5.1029   -7.1105 H         1 UNK         0.0717 
     86 H86        27.9405   -2.0507   -5.4021 H         1 UNK         0.0934 
     87 H87        28.2973   -2.6840   -6.9915 H         1 UNK         0.0934 
     88 H88        26.0286   -2.1434   -7.8009 H         1 UNK         0.0739 
     89 H89        25.4739   -1.4172   -5.0364 H         1 UNK         0.3093 
     90 H90        22.4294    0.2861   -5.7980 H         1 UNK         0.0818 
     91 H91        21.3459   -1.4822   -4.4309 H         1 UNK         0.0819 
     92 H92        21.6986   -2.0958   -6.0371 H         1 UNK         0.0819 
     93 H93        22.7207   -2.5593   -4.6838 H         1 UNK         0.0819 
     94 H94        23.5237   -0.6424   -3.3285 H         1 UNK         0.3041 
     95 H95        24.8779    2.4158   -2.4177 H         1 UNK         0.0784 
     96 H96        23.1523    0.8414   -1.4594 H         1 UNK         0.0793 
     97 H97        24.3416   -0.4619   -1.4822 H         1 UNK         0.0793 
     98 H98        24.5971    0.9516   -0.4736 H         1 UNK         0.0793 
     99 H99        26.9932    1.7345   -2.1669 H         1 UNK         0.3024 
    100 H100       28.9044   -0.4120   -3.6719 H         1 UNK         0.1171 
    101 H101       30.2403    0.6108   -1.8020 H         1 UNK         0.0786 
    102 H102       28.7504    1.0689   -0.9857 H         1 UNK         0.0786 
    103 H103       29.1524    1.7515   -2.5574 H         1 UNK         0.0786 
    104 H104       28.8834   -2.3819   -2.6504 H         1 UNK         0.2977 
    105 H105       26.5569    0.6946   -5.7742 H         1 UNK         0.3127 
    106 H106       28.8804    1.6985   -7.0471 H         1 UNK         0.0770 
    107 H107       26.7809    3.1556   -5.3529 H         1 UNK         0.0814 
    108 H108       28.3763    3.7679   -5.7367 H         1 UNK         0.0814 
    109 H109       28.2188    2.3310   -4.7444 H         1 UNK         0.0814 
    110 H110       25.7395    1.6389   -8.2940 H         1 UNK         0.2983 
    111 H111       25.8457    3.9726  -10.0060 H         1 UNK         0.0947 
    112 H112       23.9534    2.8110  -11.1636 H         1 UNK         0.0806 
    113 H113       23.6972    2.8564   -9.4273 H         1 UNK         0.0806 
    114 H114       24.2341    1.3655  -10.2016 H         1 UNK         0.0806 
    115 H115       27.4202    0.8536  -10.0793 H         1 UNK         0.3000 
    116 H116       28.4467    1.4007  -12.8309 H         1 UNK         0.0850 
    117 H117       28.2207   -1.0321  -13.3452 H         1 UNK         0.0810 
    118 H118       26.6519   -0.2960  -13.0591 H         1 UNK         0.0810 
    119 H119       27.3982   -1.2940  -11.8117 H         1 UNK         0.0810 
    120 H120       28.9579   -0.2223   -9.6611 H         1 UNK         0.3040 
    121 H121       31.6059   -1.1557  -10.3407 H         1 UNK         0.0766 
    122 H122       31.6363   -1.8655   -7.9656 H         1 UNK         0.0812 
    123 H123       30.0998   -2.3037   -8.6921 H         1 UNK         0.0812 
    124 H124       30.2054   -0.9049   -7.6204 H         1 UNK         0.0812 
    125 H125       33.5735   -0.4791   -9.4660 H         1 UNK         0.3205 
    126 H126       34.1120    2.2777   -9.3969 H         1 UNK         0.0754 
    127 H127       36.4189    1.5361   -8.7645 H         1 UNK         0.0769 
    128 H128       35.7733    0.5625  -10.0733 H         1 UNK         0.0769 
    129 H129       35.8194   -0.0825   -8.4312 H         1 UNK         0.0769 
    130 H130       33.1237    0.2090   -6.7639 H         1 UNK         0.2981 
    131 H131       33.9915    1.9939   -4.6493 H         1 UNK         0.0541 
    132 H132       31.4577    2.4166   -6.9415 H         1 UNK         0.3459 
    133 H133       30.5307    3.5076   -5.9414 H         1 UNK         0.3459 
    134 H134       32.7448    0.5188   -3.1284 H         1 UNK         0.0612 
    135 H135       33.8655   -0.3493   -4.1285 H         1 UNK         0.0612 
    136 H136       32.8048   -2.6110   -5.8270 H         1 UNK         0.0624 
    137 H137       33.2434   -2.5409   -4.1360 H         1 UNK         0.0624 
@<TRIPOS>BOND
     1    1    2 1    
     2    1   72 1    
     3    1   73 1    
     4    1   74 1    
     5    2    3 2    
     6    2    4 am   BACKBONE|DICT|INTERRES
     7    4    5 1    
     8    4   75 1    
     9    5    6 1    
    10    5   35 1    
    11    5   76 1    
    12    6    7 1    
    13    6   77 1    
    14    6   78 1    
    15    7    8 1    
    16    8    9 1    
    17    8   79 1    
    18    8   80 1    
    19    9   10 ar   
    20    9   14 ar   
    21   10   11 ar   
    22   10   81 1    
    23   11   12 ar   
    24   11   71 1    
    25   12   13 ar   
    26   12   82 1    
    27   13   14 ar   
    28   13   15 1    
    29   14   83 1    
    30   15   16 1    
    31   15   84 1    
    32   15   85 1    
    33   16   17 1    
    34   17   18 1    
    35   17   86 1    
    36   17   87 1    
    37   18   19 1    
    38   18   37 1    
    39   18   88 1    
    40   19   20 am   BACKBONE|DICT|INTERRES
    41   19   89 1    
    42   20   21 2    
    43   20   22 1    
    44   22   23 1    
    45   22   24 1    
    46   22   90 1    
    47   23   91 1    
    48   23   92 1    
    49   23   93 1    
    50   24   25 am   BACKBONE|DICT|INTERRES
    51   24   94 1    
    52   25   26 2    
    53   25   27 1    
    54   27   28 1    
    55   27   29 1    
    56   27   95 1    
    57   28   96 1    
    58   28   97 1    
    59   28   98 1    
    60   29   30 am   BACKBONE|DICT|INTERRES
    61   29   99 1    
    62   30   31 2    
    63   30   32 1    
    64   32   33 1    
    65   32   34 1    
    66   32  100 1    
    67   33  101 1    
    68   33  102 1    
    69   33  103 1    
    70   34   35 am   BACKBONE|DICT|INTERRES
    71   34  104 1    
    72   35   36 2    
    73   37   38 2    
    74   37   39 am   BACKBONE|DICT|INTERRES
    75   39   40 1    
    76   39  105 1    
    77   40   41 1    
    78   40   42 1    
    79   40  106 1    
    80   41  107 1    
    81   41  108 1    
    82   41  109 1    
    83   42   43 2    
    84   42   44 am   BACKBONE|DICT|INTERRES
    85   44   45 1    
    86   44  110 1    
    87   45   46 1    
    88   45   47 1    
    89   45  111 1    
    90   46  112 1    
    91   46  113 1    
    92   46  114 1    
    93   47   48 2    
    94   47   49 am   BACKBONE|DICT|INTERRES
    95   49   50 1    
    96   49  115 1    
    97   50   51 1    
    98   50   52 1    
    99   50  116 1    
   100   51  117 1    
   101   51  118 1    
   102   51  119 1    
   103   52   53 2    
   104   52   54 am   BACKBONE|DICT|INTERRES
   105   54   55 1    
   106   54  120 1    
   107   55   56 1    
   108   55   57 1    
   109   55  121 1    
   110   56  122 1    
   111   56  123 1    
   112   56  124 1    
   113   57   58 2    
   114   57   59 am   BACKBONE|DICT|INTERRES
   115   59   60 1    
   116   59  125 1    
   117   60   61 1    
   118   60   62 1    
   119   60  126 1    
   120   61  127 1    
   121   61  128 1    
   122   61  129 1    
   123   62   63 2    
   124   62   64 am   BACKBONE|DICT|INTERRES
   125   64   65 1    
   126   64  130 1    
   127   65   66 1    
   128   65   69 1    
   129   65  131 1    
   130   66   67 am   BACKBONE|DICT|INTERRES
   131   66   68 2    
   132   67  132 1    
   133   67  133 1    
   134   69   70 1    
   135   69  134 1    
   136   69  135 1    
   137   70   71 1    
   138   71  136 1    
   139   71  137 1    
@<TRIPOS>SUBSTRUCTURE
     1 UNK         1 GROUP             0       ****    0 ROOT    
