@<TRIPOS>MOLECULE
3R137
137   139    1
SMALL
USER_CHARGES


@<TRIPOS>ATOM
      1 CA         25.5227   -6.2471   -5.3781 C.3       0 UNK        -0.2020 
      2 C          25.7350   -5.5809   -4.0278 C.2       0 UNK         0.4855 
      3 O          24.7629   -5.2104   -3.3686 O.2       0 UNK        -0.5197 
      4 N          26.9977   -5.4102   -3.6125 N.am      1 UNK        -0.4892 
      5 CA         27.3909   -4.7437   -2.3658 C.3       1 UNK         0.0835 
      6 C6         28.9146   -4.8548   -2.1296 C.3       12 UNK        -0.0855 
      7 S7         29.3938   -4.3730   -0.4342 S.3       12 UNK        -0.2931 
      8 C8         31.1212   -3.8423   -0.6670 C.3       12 UNK         0.0378 
      9 C9         31.2377   -2.6225   -1.5713 C.ar      12 UNK        -0.0802 
     10 C10        31.7569   -2.7522   -2.8612 C.ar      12 UNK        -0.0944 
     11 C11        31.8670   -1.6399   -3.6989 C.ar      12 UNK        -0.0787 
     12 C12        31.4671   -0.3828   -3.2341 C.ar      12 UNK        -0.0862 
     13 C13        30.9394   -0.2391   -1.9438 C.ar      12 UNK        -0.0733 
     14 C14        30.8328   -1.3642   -1.1186 C.ar      12 UNK        -0.0832 
     15 C15        30.4933    1.1200   -1.4087 C.3       12 UNK         0.0240 
     16 S16        29.5161    2.1192   -2.5829 S.3       12 UNK        -0.2522 
     17 C17        28.1537    0.9958   -3.0490 C.3       12 UNK        -0.0967 
     18 CA         27.9913    0.9575   -4.5884 C.3       5 UNK         0.0660 
     19 N          27.4905   -0.3340   -5.0610 N.am      5 UNK        -0.4015 
     20 C          27.3234   -0.6651   -6.3496 C.2       4 UNK         0.4946 
     21 O          27.6859    0.0481   -7.2883 O.2       4 UNK        -0.5353 
     22 CA         26.5975   -1.9859   -6.6445 C.3       4 UNK         0.0277 
     23 CB         27.5851   -3.1621   -6.6724 C.3       4 UNK        -0.1981 
     24 N          25.5461   -2.2409   -5.6562 N.am      4 UNK        -0.4209 
     25 C          24.2793   -1.8135   -5.7721 C.2       3 UNK         0.4942 
     26 O          23.8392   -1.2519   -6.7751 O.2       3 UNK        -0.5208 
     27 CA         23.3269   -2.0554   -4.5859 C.3       3 UNK         0.0250 
     28 CB         22.4106   -3.2580   -4.8660 C.3       3 UNK        -0.1990 
     29 N          24.0349   -2.2610   -3.3191 N.am      3 UNK        -0.4232 
     30 C          24.5011   -1.2620   -2.5522 C.2       2 UNK         0.4993 
     31 O          24.2951   -0.0719   -2.7854 O.2       2 UNK        -0.5286 
     32 CA         25.3584   -1.6334   -1.3255 C.3       2 UNK         0.0209 
     33 CB         24.5111   -1.5894   -0.0436 C.3       2 UNK        -0.1931 
     34 N          26.0190   -2.9388   -1.4205 N.am      2 UNK        -0.4546 
     35 C          26.9045   -3.2796   -2.3656 C.2       1 UNK         0.5154 
     36 O          27.2748   -2.5129   -3.2573 O.2       1 UNK        -0.5181 
     37 C          27.1030    2.1165   -5.0935 C.2       5 UNK         0.5014 
     38 O          25.8827    1.9606   -5.1788 O.2       5 UNK        -0.5248 
     39 N          27.7374    3.2382   -5.4609 N.am      6 UNK        -0.4434 
     40 CA         27.1800    4.4364   -6.1091 C.3       6 UNK         0.0363 
     41 CB         26.1160    5.1198   -5.2279 C.3       6 UNK        -0.1936 
     42 C          26.6539    4.2122   -7.5431 C.2       6 UNK         0.5081 
     43 O          26.8832    5.0687   -8.3965 O.2       6 UNK        -0.5248 
     44 N          25.9715    3.0864   -7.7912 N.am      7 UNK        -0.4718 
     45 CA         25.4379    2.6785   -9.0930 C.3       7 UNK         0.0273 
     46 CB         24.4757    1.4935   -8.9063 C.3       7 UNK        -0.1935 
     47 C          26.5552    2.3413  -10.0927 C.2       7 UNK         0.5018 
     48 O          26.6497    2.9844  -11.1390 O.2       7 UNK        -0.5186 
     49 N          27.3922    1.3596   -9.7350 N.am      8 UNK        -0.4240 
     50 CA         28.6392    1.0350  -10.4278 C.3       8 UNK         0.0235 
     51 CB         28.8414   -0.4897  -10.4498 C.3       8 UNK        -0.2000 
     52 C          29.8231    1.7259   -9.7374 C.2       8 UNK         0.4941 
     53 O          30.7640    2.1299  -10.4213 O.2       8 UNK        -0.5273 
     54 N          29.7592    1.8450   -8.4005 N.am      9 UNK        -0.4262 
     55 CA         30.6904    2.5258   -7.4865 C.3       9 UNK         0.0264 
     56 CB         30.8066    4.0280   -7.8104 C.3       9 UNK        -0.1955 
     57 C          32.0752    1.8677   -7.3768 C.2       9 UNK         0.5031 
     58 O          32.5230    1.5964   -6.2636 O.2       9 UNK        -0.5390 
     59 N          32.7148    1.6066   -8.5214 N.am      10 UNK        -0.4204 
     60 CA         33.9530    0.8335   -8.6362 C.3       10 UNK         0.0237 
     61 CB         34.6592    1.2119   -9.9484 C.3       10 UNK        -0.1985 
     62 C          33.7027   -0.6848   -8.5784 C.2       10 UNK         0.4970 
     63 O          34.6368   -1.4317   -8.2844 O.2       10 UNK        -0.4914 
     64 N          32.4597   -1.1031   -8.8589 N.am      11 UNK        -0.4285 
     65 CA         31.9922   -2.4966   -8.9203 C.3       11 UNK         0.1007 
     66 C          32.6565   -3.3098  -10.0750 C.2       11 UNK         0.5703 
     67 N          32.6166   -4.6356  -10.0349 N.am      11 UNK        -0.7361 
     68 O          33.1627   -2.7496  -11.0463 O.2       11 UNK        -0.4986 
     69 C69        32.0320   -3.2096   -7.5364 C.3       12 UNK        -0.0947 
     70 S70        31.0913   -2.3248   -6.2459 S.3       12 UNK        -0.2240 
     71 C71        32.4137   -1.8165   -5.1056 C.3       12 UNK         0.0194 
     72 H72        25.0191   -5.5611   -6.0587 H         1 UNK         0.0906 
     73 H73        24.8988   -7.1332   -5.2642 H         1 UNK         0.0906 
     74 H74        26.4635   -6.5513   -5.8363 H         1 UNK         0.0906 
     75 H75        27.7578   -5.7163   -4.2030 H         1 UNK         0.3140 
     76 H76        26.8876   -5.2771   -1.5561 H         1 UNK         0.1085 
     77 H77        29.4525   -4.2584   -2.8676 H         1 UNK         0.0836 
     78 H78        29.2425   -5.8849   -2.2779 H         1 UNK         0.0836 
     79 H79        31.5529   -3.6088    0.3073 H         1 UNK         0.0731 
     80 H80        31.7007   -4.6774   -1.0639 H         1 UNK         0.0731 
     81 H81        32.0653   -3.7240   -3.2223 H         1 UNK         0.1312 
     82 H82        31.5569    0.4790   -3.8818 H         1 UNK         0.1406 
     83 H83        30.4296   -1.2670   -0.1194 H         1 UNK         0.1631 
     84 H84        31.3794    1.6881   -1.1229 H         1 UNK         0.0717 
     85 H85        29.9014    0.9977   -0.5002 H         1 UNK         0.0717 
     86 H86        28.3733   -0.0028   -2.6689 H         1 UNK         0.0934 
     87 H87        27.2329    1.3015   -2.5473 H         1 UNK         0.0934 
     88 H88        28.9776    1.0535   -5.0465 H         1 UNK         0.0739 
     89 H89        27.2423   -1.0157   -4.3496 H         1 UNK         0.3093 
     90 H90        26.1517   -1.9024   -7.6381 H         1 UNK         0.0818 
     91 H91        28.3525   -3.0023   -7.4308 H         1 UNK         0.0819 
     92 H92        28.0940   -3.2919   -5.7166 H         1 UNK         0.0819 
     93 H93        27.0819   -4.0969   -6.9170 H         1 UNK         0.0819 
     94 H94        25.8465   -2.6418   -4.7764 H         1 UNK         0.3041 
     95 H95        22.6929   -1.1707   -4.4935 H         1 UNK         0.0784 
     96 H96        21.8088   -3.0866   -5.7596 H         1 UNK         0.0793 
     97 H97        22.9779   -4.1738   -5.0306 H         1 UNK         0.0793 
     98 H98        21.7207   -3.4334   -4.0404 H         1 UNK         0.0793 
     99 H99        24.2431   -3.2223   -3.0656 H         1 UNK         0.3024 
    100 H100       26.1415   -0.8761   -1.2451 H         1 UNK         0.1171 
    101 H101       23.7242   -2.3448   -0.0537 H         1 UNK         0.0786 
    102 H102       25.1234   -1.7518    0.8437 H         1 UNK         0.0786 
    103 H103       24.0285   -0.6178    0.0725 H         1 UNK         0.0786 
    104 H104       25.7428   -3.6329   -0.7406 H         1 UNK         0.2977 
    105 H105       28.7354    3.2727   -5.3094 H         1 UNK         0.3127 
    106 H106       28.0166    5.1317   -6.1952 H         1 UNK         0.0770 
    107 H107       25.8029    6.0686   -5.6655 H         1 UNK         0.0814 
    108 H108       25.2209    4.5076   -5.1152 H         1 UNK         0.0814 
    109 H109       26.5038    5.3342   -4.2321 H         1 UNK         0.0814 
    110 H110       25.8109    2.4623   -7.0042 H         1 UNK         0.2983 
    111 H111       24.8692    3.5166   -9.5017 H         1 UNK         0.0947 
    112 H112       24.9683    0.6361   -8.4459 H         1 UNK         0.0806 
    113 H113       24.0706    1.1629   -9.8635 H         1 UNK         0.0806 
    114 H114       23.6305    1.7658   -8.2739 H         1 UNK         0.0806 
    115 H115       27.2476    0.8931   -8.8414 H         1 UNK         0.3000 
    116 H116       28.5986    1.3881  -11.4606 H         1 UNK         0.0850 
    117 H117       29.7521   -0.7538  -10.9890 H         1 UNK         0.0810 
    118 H118       28.0127   -0.9889  -10.9521 H         1 UNK         0.0810 
    119 H119       28.9213   -0.9079   -9.4459 H         1 UNK         0.0810 
    120 H120       28.9835    1.3703   -7.9460 H         1 UNK         0.3040 
    121 H121       30.2411    2.4435   -6.4982 H         1 UNK         0.0766 
    122 H122       31.3990    4.5440   -7.0537 H         1 UNK         0.0812 
    123 H123       29.8282    4.5062   -7.8401 H         1 UNK         0.0812 
    124 H124       31.2889    4.2041   -8.7723 H         1 UNK         0.0812 
    125 H125       32.2396    1.8706   -9.3842 H         1 UNK         0.3205 
    126 H126       34.6107    1.0930   -7.8038 H         1 UNK         0.0754 
    127 H127       35.6003    0.6706  -10.0557 H         1 UNK         0.0769 
    128 H128       34.8928    2.2763   -9.9801 H         1 UNK         0.0769 
    129 H129       34.0458    0.9762  -10.8193 H         1 UNK         0.0769 
    130 H130       31.7766   -0.4060   -9.1069 H         1 UNK         0.2981 
    131 H131       30.9444   -2.4269   -9.2122 H         1 UNK         0.0541 
    132 H132       33.0272   -5.1587  -10.7924 H         1 UNK         0.3459 
    133 H133       32.1890   -5.1229   -9.2637 H         1 UNK         0.3459 
    134 H134       33.0626   -3.3665   -7.2164 H         1 UNK         0.0612 
    135 H135       31.5860   -4.2023   -7.6055 H         1 UNK         0.0612 
    136 H136       32.8715   -0.8953   -5.4655 H         1 UNK         0.0624 
    137 H137       33.2049   -2.5671   -5.0887 H         1 UNK         0.0624 
@<TRIPOS>BOND
     1    1    2 1    
     2    1   72 1    
     3    1   73 1    
     4    1   74 1    
     5    2    3 2    
     6    2    4 am   BACKBONE|DICT|INTERRES
     7    4    5 1    
     8    4   75 1    
     9    5    6 1    
    10    5   35 1    
    11    5   76 1    
    12    6    7 1    
    13    6   77 1    
    14    6   78 1    
    15    7    8 1    
    16    8    9 1    
    17    8   79 1    
    18    8   80 1    
    19    9   10 ar   
    20    9   14 ar   
    21   10   11 ar   
    22   10   81 1    
    23   11   12 ar   
    24   11   71 1    
    25   12   13 ar   
    26   12   82 1    
    27   13   14 ar   
    28   13   15 1    
    29   14   83 1    
    30   15   16 1    
    31   15   84 1    
    32   15   85 1    
    33   16   17 1    
    34   17   18 1    
    35   17   86 1    
    36   17   87 1    
    37   18   19 1    
    38   18   37 1    
    39   18   88 1    
    40   19   20 am   BACKBONE|DICT|INTERRES
    41   19   89 1    
    42   20   21 2    
    43   20   22 1    
    44   22   23 1    
    45   22   24 1    
    46   22   90 1    
    47   23   91 1    
    48   23   92 1    
    49   23   93 1    
    50   24   25 am   BACKBONE|DICT|INTERRES
    51   24   94 1    
    52   25   26 2    
    53   25   27 1    
    54   27   28 1    
    55   27   29 1    
    56   27   95 1    
    57   28   96 1    
    58   28   97 1    
    59   28   98 1    
    60   29   30 am   BACKBONE|DICT|INTERRES
    61   29   99 1    
    62   30   31 2    
    63   30   32 1    
    64   32   33 1    
    65   32   34 1    
    66   32  100 1    
    67   33  101 1    
    68   33  102 1    
    69   33  103 1    
    70   34   35 am   BACKBONE|DICT|INTERRES
    71   34  104 1    
    72   35   36 2    
    73   37   38 2    
    74   37   39 am   BACKBONE|DICT|INTERRES
    75   39   40 1    
    76   39  105 1    
    77   40   41 1    
    78   40   42 1    
    79   40  106 1    
    80   41  107 1    
    81   41  108 1    
    82   41  109 1    
    83   42   43 2    
    84   42   44 am   BACKBONE|DICT|INTERRES
    85   44   45 1    
    86   44  110 1    
    87   45   46 1    
    88   45   47 1    
    89   45  111 1    
    90   46  112 1    
    91   46  113 1    
    92   46  114 1    
    93   47   48 2    
    94   47   49 am   BACKBONE|DICT|INTERRES
    95   49   50 1    
    96   49  115 1    
    97   50   51 1    
    98   50   52 1    
    99   50  116 1    
   100   51  117 1    
   101   51  118 1    
   102   51  119 1    
   103   52   53 2    
   104   52   54 am   BACKBONE|DICT|INTERRES
   105   54   55 1    
   106   54  120 1    
   107   55   56 1    
   108   55   57 1    
   109   55  121 1    
   110   56  122 1    
   111   56  123 1    
   112   56  124 1    
   113   57   58 2    
   114   57   59 am   BACKBONE|DICT|INTERRES
   115   59   60 1    
   116   59  125 1    
   117   60   61 1    
   118   60   62 1    
   119   60  126 1    
   120   61  127 1    
   121   61  128 1    
   122   61  129 1    
   123   62   63 2    
   124   62   64 am   BACKBONE|DICT|INTERRES
   125   64   65 1    
   126   64  130 1    
   127   65   66 1    
   128   65   69 1    
   129   65  131 1    
   130   66   67 am   BACKBONE|DICT|INTERRES
   131   66   68 2    
   132   67  132 1    
   133   67  133 1    
   134   69   70 1    
   135   69  134 1    
   136   69  135 1    
   137   70   71 1    
   138   71  136 1    
   139   71  137 1    
@<TRIPOS>SUBSTRUCTURE
     1 UNK         1 GROUP             0       ****    0 ROOT    
