@<TRIPOS>MOLECULE
3R137
137   139    1
SMALL
USER_CHARGES


@<TRIPOS>ATOM
      1 CA         26.8678   -6.7934    1.2021 C.3       0 UNK        -0.2020 
      2 C          27.0513   -5.3343    0.8118 C.2       0 UNK         0.4855 
      3 O          26.8465   -4.4479    1.6420 O.2       0 UNK        -0.5197 
      4 N          27.4458   -5.0786   -0.4413 N.am      1 UNK        -0.4892 
      5 CA         27.6260   -3.7365   -1.0053 C.3       1 UNK         0.0835 
      6 C6         28.4140   -3.7695   -2.3383 C.3       12 UNK        -0.0855 
      7 S7         30.0254   -4.6313   -2.2406 S.3       12 UNK        -0.2931 
      8 C8         31.1937   -3.3195   -1.7417 C.3       12 UNK         0.0378 
      9 C9         31.1411   -2.1051   -2.6579 C.ar      12 UNK        -0.0802 
     10 C10        31.5714   -2.1931   -3.9853 C.ar      12 UNK        -0.0944 
     11 C11        31.4471   -1.0956   -4.8500 C.ar      12 UNK        -0.0787 
     12 C12        30.9105    0.0992   -4.3586 C.ar      12 UNK        -0.0862 
     13 C13        30.4976    0.2035   -3.0288 C.ar      12 UNK        -0.0733 
     14 C14        30.6266   -0.8982   -2.1808 C.ar      12 UNK        -0.0832 
     15 C15        29.8798    1.4883   -2.5037 C.3       12 UNK         0.0240 
     16 S16        28.1170    1.2292   -2.1446 S.3       12 UNK        -0.2522 
     17 C17        27.2940    2.3393   -3.3318 C.3       12 UNK        -0.0967 
     18 CA         27.3820    1.9225   -4.8275 C.3       5 UNK         0.0660 
     19 N          27.2415    0.4841   -5.0677 N.am      5 UNK        -0.4015 
     20 C          27.5268   -0.1314   -6.2269 C.2       4 UNK         0.4946 
     21 O          28.0246    0.4331   -7.2032 O.2       4 UNK        -0.5353 
     22 CA         27.1618   -1.6237   -6.3340 C.3       4 UNK         0.0277 
     23 CB         28.3598   -2.5067   -5.9631 C.3       4 UNK        -0.1981 
     24 N          26.0109   -1.9932   -5.5068 N.am      4 UNK        -0.4209 
     25 C          24.7544   -1.5895   -5.7410 C.2       3 UNK         0.4942 
     26 O          24.4270   -0.8917   -6.6991 O.2       3 UNK        -0.5208 
     27 CA         23.7004   -1.9807   -4.6940 C.3       3 UNK         0.0250 
     28 CB         23.1999   -3.4139   -4.9316 C.3       3 UNK        -0.1990 
     29 N          24.1925   -1.8514   -3.3194 N.am      3 UNK        -0.4232 
     30 C          24.5899   -0.7080   -2.7478 C.2       2 UNK         0.4993 
     31 O          24.5941    0.3757   -3.3331 O.2       2 UNK        -0.5286 
     32 CA         25.1041   -0.7874   -1.2996 C.3       2 UNK         0.0209 
     33 CB         23.9591   -1.0776   -0.3086 C.3       2 UNK        -0.1931 
     34 N          26.2407   -1.7065   -1.1118 N.am      2 UNK        -0.4546 
     35 C          26.2622   -3.0439   -1.2222 C.2       1 UNK         0.5154 
     36 O          25.2791   -3.7215   -1.5368 O.2       1 UNK        -0.5181 
     37 C          26.3313    2.6962   -5.6440 C.2       5 UNK         0.5014 
     38 O          26.6829    3.6442   -6.3453 O.2       5 UNK        -0.5248 
     39 N          25.0663    2.2539   -5.5541 N.am      6 UNK        -0.4434 
     40 CA         23.9218    2.8079   -6.2837 C.3       6 UNK         0.0363 
     41 CB         22.6278    2.1446   -5.7861 C.3       6 UNK        -0.1936 
     42 C          24.0540    2.6710   -7.8105 C.2       6 UNK         0.5081 
     43 O          23.7033    3.6027   -8.5348 O.2       6 UNK        -0.5248 
     44 N          24.5905    1.5320   -8.2697 N.am      7 UNK        -0.4718 
     45 CA         24.9318    1.2719   -9.6718 C.3       7 UNK         0.0273 
     46 CB         25.1655   -0.2364   -9.8562 C.3       7 UNK        -0.1935 
     47 C          26.1592    2.0607  -10.1689 C.2       7 UNK         0.5018 
     48 O          26.3573    2.1418  -11.3818 O.2       7 UNK        -0.5186 
     49 N          26.9571    2.6058   -9.2371 N.am      8 UNK        -0.4240 
     50 CA         28.2143    3.3329   -9.4406 C.3       8 UNK         0.0235 
     51 CB         27.9604    4.6830  -10.1446 C.3       8 UNK        -0.2000 
     52 C          29.2864    2.4733  -10.1368 C.2       8 UNK         0.4941 
     53 O          29.9563    2.9458  -11.0586 O.2       8 UNK        -0.5273 
     54 N          29.4196    1.2169   -9.6908 N.am      9 UNK        -0.4262 
     55 CA         30.4222    0.2721  -10.1840 C.3       9 UNK         0.0264 
     56 CB         29.9853   -1.1549   -9.8134 C.3       9 UNK        -0.1955 
     57 C          31.8214    0.5942   -9.6281 C.2       9 UNK         0.5031 
     58 O          31.9359    1.1991   -8.5591 O.2       9 UNK        -0.5390 
     59 N          32.8625    0.1756  -10.3597 N.am      10 UNK        -0.4204 
     60 CA         34.2633    0.3463   -9.9605 C.3       10 UNK         0.0237 
     61 CB         35.1692    0.2701  -11.2013 C.3       10 UNK        -0.1985 
     62 C          34.7009   -0.6811   -8.9032 C.2       10 UNK         0.4970 
     63 O          35.3799   -0.3090   -7.9461 O.2       10 UNK        -0.4914 
     64 N          34.3050   -1.9464   -9.1051 N.am      11 UNK        -0.4285 
     65 CA         34.5909   -3.1061   -8.2368 C.3       11 UNK         0.1007 
     66 C          36.0997   -3.4868   -8.1176 C.2       11 UNK         0.5703 
     67 N          36.9622   -3.0553   -9.0306 N.am      11 UNK        -0.7361 
     68 O          36.4948   -4.2122   -7.2075 O.2       11 UNK        -0.4986 
     69 C69        33.8742   -3.0302   -6.8567 C.3       12 UNK        -0.0947 
     70 S70        32.0723   -2.8114   -7.0352 S.3       12 UNK        -0.2240 
     71 C71        31.8372   -1.1451   -6.3264 C.3       12 UNK         0.0194 
     72 H72        27.5205   -7.0434    2.0381 H         1 UNK         0.0906 
     73 H73        25.8375   -6.9727    1.5081 H         1 UNK         0.0906 
     74 H74        27.0991   -7.4684    0.3782 H         1 UNK         0.0906 
     75 H75        27.5961   -5.8424   -1.0849 H         1 UNK         0.3140 
     76 H76        28.1962   -3.1478   -0.2830 H         1 UNK         0.1085 
     77 H77        28.5640   -2.7568   -2.7111 H         1 UNK         0.0836 
     78 H78        27.8296   -4.2795   -3.1070 H         1 UNK         0.0836 
     79 H79        32.2054   -3.7275   -1.7460 H         1 UNK         0.0731 
     80 H80        30.9842   -3.0372   -0.7087 H         1 UNK         0.0731 
     81 H81        31.9691   -3.1330   -4.3398 H         1 UNK         0.1312 
     82 H82        30.7980    0.9460   -5.0226 H         1 UNK         0.1406 
     83 H83        30.2916   -0.8205   -1.1552 H         1 UNK         0.1631 
     84 H84        30.0119    2.3075   -3.2119 H         1 UNK         0.0717 
     85 H85        30.3899    1.7880   -1.5872 H         1 UNK         0.0717 
     86 H86        26.2549    2.4048   -3.0034 H         1 UNK         0.0934 
     87 H87        27.6981    3.3452   -3.2029 H         1 UNK         0.0934 
     88 H88        28.3681    2.2126   -5.1965 H         1 UNK         0.0739 
     89 H89        26.8190   -0.0463   -4.3213 H         1 UNK         0.3093 
     90 H90        26.9030   -1.8269   -7.3750 H         1 UNK         0.0818 
     91 H91        28.7407   -2.2781   -4.9687 H         1 UNK         0.0819 
     92 H92        28.1083   -3.5668   -5.9967 H         1 UNK         0.0819 
     93 H93        29.1772   -2.3511   -6.6649 H         1 UNK         0.0819 
     94 H94        26.1859   -2.5757   -4.7020 H         1 UNK         0.3041 
     95 H95        22.8550   -1.2990   -4.8083 H         1 UNK         0.0784 
     96 H96        22.8212   -3.5316   -5.9480 H         1 UNK         0.0793 
     97 H97        23.9925   -4.1499   -4.7900 H         1 UNK         0.0793 
     98 H98        22.3850   -3.6656   -4.2525 H         1 UNK         0.0793 
     99 H99        24.2827   -2.7010   -2.7664 H         1 UNK         0.3024 
    100 H100       25.4837    0.2073   -1.0589 H         1 UNK         0.1171 
    101 H101       24.3121   -1.0443    0.7221 H         1 UNK         0.0786 
    102 H102       23.1670   -0.3335   -0.4031 H         1 UNK         0.0786 
    103 H103       23.5042   -2.0545   -0.4734 H         1 UNK         0.0786 
    104 H104       27.1113   -1.2420   -0.8899 H         1 UNK         0.2977 
    105 H105       24.8682    1.4890   -4.9130 H         1 UNK         0.3127 
    106 H106       23.8702    3.8738   -6.0519 H         1 UNK         0.0770 
    107 H107       22.6245    1.0712   -5.9779 H         1 UNK         0.0814 
    108 H108       21.7555    2.5681   -6.2855 H         1 UNK         0.0814 
    109 H109       22.4926    2.2924   -4.7144 H         1 UNK         0.0814 
    110 H110       24.7578    0.7741   -7.6119 H         1 UNK         0.2983 
    111 H111       24.0818    1.5675  -10.2906 H         1 UNK         0.0947 
    112 H112       25.3683   -0.4771  -10.9006 H         1 UNK         0.0806 
    113 H113       24.2923   -0.8148   -9.5538 H         1 UNK         0.0806 
    114 H114       26.0174   -0.5832   -9.2706 H         1 UNK         0.0806 
    115 H115       26.6955    2.4744   -8.2679 H         1 UNK         0.3000 
    116 H116       28.6028    3.5493   -8.4442 H         1 UNK         0.0850 
    117 H117       28.8736    5.2776  -10.1890 H         1 UNK         0.0810 
    118 H118       27.2158    5.2729   -9.6099 H         1 UNK         0.0810 
    119 H119       27.6105    4.5477  -11.1684 H         1 UNK         0.0810 
    120 H120       28.8776    0.9283   -8.8791 H         1 UNK         0.3040 
    121 H121       30.4615    0.3465  -11.2730 H         1 UNK         0.0766 
    122 H122       30.7337   -1.8916  -10.1078 H         1 UNK         0.0812 
    123 H123       29.8241   -1.2629   -8.7420 H         1 UNK         0.0812 
    124 H124       29.0539   -1.4219  -10.3131 H         1 UNK         0.0812 
    125 H125       32.6874   -0.2982  -11.2346 H         1 UNK         0.3205 
    126 H126       34.3812    1.3406   -9.5233 H         1 UNK         0.0754 
    127 H127       36.2165    0.4073  -10.9280 H         1 UNK         0.0769 
    128 H128       34.9204    1.0512  -11.9201 H         1 UNK         0.0769 
    129 H129       35.0877   -0.6912  -11.7101 H         1 UNK         0.0769 
    130 H130       33.7602   -2.1520   -9.9284 H         1 UNK         0.2981 
    131 H131       34.1553   -3.9562   -8.7628 H         1 UNK         0.0541 
    132 H132       36.6542   -2.4717   -9.7910 H         1 UNK         0.3459 
    133 H133       37.9329   -3.3152   -8.9529 H         1 UNK         0.3459 
    134 H134       34.0267   -3.9532   -6.2952 H         1 UNK         0.0612 
    135 H135       34.2960   -2.2328   -6.2433 H         1 UNK         0.0612 
    136 H136       32.7293   -0.5389   -6.4867 H         1 UNK         0.0624 
    137 H137       31.0407   -0.6652   -6.8938 H         1 UNK         0.0624 
@<TRIPOS>BOND
     1    1    2 1    
     2    1   72 1    
     3    1   73 1    
     4    1   74 1    
     5    2    3 2    
     6    2    4 am   BACKBONE|DICT|INTERRES
     7    4    5 1    
     8    4   75 1    
     9    5    6 1    
    10    5   35 1    
    11    5   76 1    
    12    6    7 1    
    13    6   77 1    
    14    6   78 1    
    15    7    8 1    
    16    8    9 1    
    17    8   79 1    
    18    8   80 1    
    19    9   10 ar   
    20    9   14 ar   
    21   10   11 ar   
    22   10   81 1    
    23   11   12 ar   
    24   11   71 1    
    25   12   13 ar   
    26   12   82 1    
    27   13   14 ar   
    28   13   15 1    
    29   14   83 1    
    30   15   16 1    
    31   15   84 1    
    32   15   85 1    
    33   16   17 1    
    34   17   18 1    
    35   17   86 1    
    36   17   87 1    
    37   18   19 1    
    38   18   37 1    
    39   18   88 1    
    40   19   20 am   BACKBONE|DICT|INTERRES
    41   19   89 1    
    42   20   21 2    
    43   20   22 1    
    44   22   23 1    
    45   22   24 1    
    46   22   90 1    
    47   23   91 1    
    48   23   92 1    
    49   23   93 1    
    50   24   25 am   BACKBONE|DICT|INTERRES
    51   24   94 1    
    52   25   26 2    
    53   25   27 1    
    54   27   28 1    
    55   27   29 1    
    56   27   95 1    
    57   28   96 1    
    58   28   97 1    
    59   28   98 1    
    60   29   30 am   BACKBONE|DICT|INTERRES
    61   29   99 1    
    62   30   31 2    
    63   30   32 1    
    64   32   33 1    
    65   32   34 1    
    66   32  100 1    
    67   33  101 1    
    68   33  102 1    
    69   33  103 1    
    70   34   35 am   BACKBONE|DICT|INTERRES
    71   34  104 1    
    72   35   36 2    
    73   37   38 2    
    74   37   39 am   BACKBONE|DICT|INTERRES
    75   39   40 1    
    76   39  105 1    
    77   40   41 1    
    78   40   42 1    
    79   40  106 1    
    80   41  107 1    
    81   41  108 1    
    82   41  109 1    
    83   42   43 2    
    84   42   44 am   BACKBONE|DICT|INTERRES
    85   44   45 1    
    86   44  110 1    
    87   45   46 1    
    88   45   47 1    
    89   45  111 1    
    90   46  112 1    
    91   46  113 1    
    92   46  114 1    
    93   47   48 2    
    94   47   49 am   BACKBONE|DICT|INTERRES
    95   49   50 1    
    96   49  115 1    
    97   50   51 1    
    98   50   52 1    
    99   50  116 1    
   100   51  117 1    
   101   51  118 1    
   102   51  119 1    
   103   52   53 2    
   104   52   54 am   BACKBONE|DICT|INTERRES
   105   54   55 1    
   106   54  120 1    
   107   55   56 1    
   108   55   57 1    
   109   55  121 1    
   110   56  122 1    
   111   56  123 1    
   112   56  124 1    
   113   57   58 2    
   114   57   59 am   BACKBONE|DICT|INTERRES
   115   59   60 1    
   116   59  125 1    
   117   60   61 1    
   118   60   62 1    
   119   60  126 1    
   120   61  127 1    
   121   61  128 1    
   122   61  129 1    
   123   62   63 2    
   124   62   64 am   BACKBONE|DICT|INTERRES
   125   64   65 1    
   126   64  130 1    
   127   65   66 1    
   128   65   69 1    
   129   65  131 1    
   130   66   67 am   BACKBONE|DICT|INTERRES
   131   66   68 2    
   132   67  132 1    
   133   67  133 1    
   134   69   70 1    
   135   69  134 1    
   136   69  135 1    
   137   70   71 1    
   138   71  136 1    
   139   71  137 1    
@<TRIPOS>SUBSTRUCTURE
     1 UNK         1 GROUP             0       ****    0 ROOT    
