@<TRIPOS>MOLECULE
3R137
137   139    1
SMALL
USER_CHARGES


@<TRIPOS>ATOM
      1 CA         26.6251   -6.4167    1.5696 C.3       0 UNK        -0.2020 
      2 C          26.9894   -5.1961    0.7384 C.2       0 UNK         0.4855 
      3 O          27.4849   -5.3452   -0.3793 O.2       0 UNK        -0.5197 
      4 N          26.7380   -3.9909    1.2705 N.am      1 UNK        -0.4892 
      5 CA         26.9955   -2.6711    0.6718 C.3       1 UNK         0.0835 
      6 C6         28.4848   -2.4600    0.2884 C.3       12 UNK        -0.0855 
      7 S7         28.9792   -0.7049    0.2218 S.3       12 UNK        -0.2931 
      8 C8         28.9103   -0.3546   -1.5639 C.3       12 UNK         0.0378 
      9 C9         30.0614   -0.9915   -2.3287 C.ar      12 UNK        -0.0802 
     10 C10        31.2932   -0.3379   -2.4246 C.ar      12 UNK        -0.0944 
     11 C11        32.3544   -0.9221   -3.1237 C.ar      12 UNK        -0.0787 
     12 C12        32.1762   -2.1698   -3.7287 C.ar      12 UNK        -0.0862 
     13 C13        30.9438   -2.8249   -3.6545 C.ar      12 UNK        -0.0733 
     14 C14        29.8910   -2.2289   -2.9543 C.ar      12 UNK        -0.0832 
     15 C15        30.7625   -4.1863   -4.3097 C.3       12 UNK         0.0240 
     16 S16        30.2927   -4.0487   -6.0634 S.3       12 UNK        -0.2522 
     17 C17        28.5401   -3.5549   -5.9363 C.3       12 UNK        -0.0967 
     18 CA         28.1360   -2.4026   -6.8865 C.3       5 UNK         0.0660 
     19 N          26.6784   -2.2762   -6.9228 N.am      5 UNK        -0.4015 
     20 C          25.9511   -2.0219   -8.0183 C.2       4 UNK         0.4946 
     21 O          26.4237   -1.9238   -9.1496 O.2       4 UNK        -0.5353 
     22 CA         24.4308   -1.8557   -7.8296 C.3       4 UNK         0.0277 
     23 CB         23.7092   -3.1793   -8.1306 C.3       4 UNK        -0.1981 
     24 N          24.0522   -1.3960   -6.4914 N.am      4 UNK        -0.4209 
     25 C          24.3435   -0.1926   -5.9761 C.2       3 UNK         0.4942 
     26 O          24.9184    0.7023   -6.5965 O.2       3 UNK        -0.5208 
     27 CA         23.9732    0.0263   -4.4977 C.3       3 UNK         0.0250 
     28 CB         22.5670    0.6354   -4.3833 C.3       3 UNK        -0.1990 
     29 N          24.0501   -1.1880   -3.6742 N.am      3 UNK        -0.4232 
     30 C          25.1530   -1.9265   -3.4811 C.2       2 UNK         0.4993 
     31 O          26.2382   -1.6955   -4.0204 O.2       2 UNK        -0.5286 
     32 CA         24.9972   -3.1790   -2.6038 C.3       2 UNK         0.0209 
     33 CB         25.1730   -4.4475   -3.4554 C.3       2 UNK        -0.1931 
     34 N          25.9421   -3.2230   -1.4859 N.am      2 UNK        -0.4546 
     35 C          26.0139   -2.3436   -0.4777 C.2       1 UNK         0.5154 
     36 O          25.3036   -1.3402   -0.3983 O.2       1 UNK        -0.5181 
     37 C          28.7949   -1.0494   -6.5286 C.2       5 UNK         0.5014 
     38 O          29.9275   -0.8087   -6.9460 O.2       5 UNK        -0.5248 
     39 N          28.0722   -0.1828   -5.7998 N.am      6 UNK        -0.4434 
     40 CA         28.4587    1.1796   -5.4221 C.3       6 UNK         0.0363 
     41 CB         27.5312    1.6591   -4.2861 C.3       6 UNK        -0.1936 
     42 C          28.4788    2.1459   -6.6287 C.2       6 UNK         0.5081 
     43 O          29.0958    1.8456   -7.6483 O.2       6 UNK        -0.5248 
     44 N          27.8173    3.3068   -6.5163 N.am      7 UNK        -0.4718 
     45 CA         27.8198    4.4017   -7.4990 C.3       7 UNK         0.0273 
     46 CB         26.9312    5.5421   -6.9763 C.3       7 UNK        -0.1935 
     47 C          27.4072    4.0180   -8.9347 C.2       7 UNK         0.5018 
     48 O          27.7987    4.7110   -9.8743 O.2       7 UNK        -0.5186 
     49 N          26.6478    2.9249   -9.0848 N.am      8 UNK        -0.4240 
     50 CA         26.2534    2.3596  -10.3746 C.3       8 UNK         0.0235 
     51 CB         25.0725    1.4035  -10.1540 C.3       8 UNK        -0.2000 
     52 C          27.3939    1.6408  -11.1249 C.2       8 UNK         0.4941 
     53 O          27.2949    1.5169  -12.3468 O.2       8 UNK        -0.5273 
     54 N          28.4316    1.1714  -10.4138 N.am      9 UNK        -0.4262 
     55 CA         29.5451    0.4004  -10.9873 C.3       9 UNK         0.0264 
     56 CB         29.3731   -1.0843  -10.6278 C.3       9 UNK        -0.1955 
     57 C          30.9370    0.8987  -10.5629 C.2       9 UNK         0.5031 
     58 O          31.9224    0.4595  -11.1580 O.2       9 UNK        -0.5390 
     59 N          31.0136    1.7785   -9.5543 N.am      10 UNK        -0.4204 
     60 CA         32.2230    2.3595   -8.9619 C.3       10 UNK         0.0237 
     61 CB         32.9329    3.2961   -9.9633 C.3       10 UNK        -0.1985 
     62 C          33.1520    1.2892   -8.3585 C.2       10 UNK         0.4970 
     63 O          34.3608    1.3205   -8.5966 O.2       10 UNK        -0.4914 
     64 N          32.5573    0.3536   -7.6052 N.am      11 UNK        -0.4285 
     65 CA         33.2083   -0.8032   -6.9673 C.3       11 UNK         0.1007 
     66 C          33.6437   -1.9264   -7.9563 C.2       11 UNK         0.5703 
     67 N          33.3240   -1.8532   -9.2443 N.am      11 UNK        -0.7361 
     68 O          34.2630   -2.9045   -7.5439 O.2       11 UNK        -0.4986 
     69 C69        34.3397   -0.4215   -5.9657 C.3       12 UNK        -0.0947 
     70 S70        33.8318    0.8058   -4.7097 S.3       12 UNK        -0.2240 
     71 C71        33.6965   -0.2108   -3.2061 C.3       12 UNK         0.0194 
     72 H72        26.1973   -6.1428    2.5338 H         1 UNK         0.0906 
     73 H73        25.8977   -7.0289    1.0371 H         1 UNK         0.0906 
     74 H74        27.5118   -7.0231    1.7522 H         1 UNK         0.0906 
     75 H75        26.3001   -3.9540    2.1816 H         1 UNK         0.3140 
     76 H76        26.7669   -1.9629    1.4707 H         1 UNK         0.1085 
     77 H77        29.1193   -2.9219    1.0463 H         1 UNK         0.0836 
     78 H78        28.7333   -2.9752   -0.6371 H         1 UNK         0.0836 
     79 H79        28.9367    0.7269   -1.7036 H         1 UNK         0.0731 
     80 H80        27.9541   -0.6934   -1.9638 H         1 UNK         0.0731 
     81 H81        31.4273    0.6239   -1.9484 H         1 UNK         0.1312 
     82 H82        32.9947   -2.6299   -4.2648 H         1 UNK         0.1406 
     83 H83        28.9357   -2.7297   -2.8863 H         1 UNK         0.1631 
     84 H84        30.0156   -4.7751   -3.7744 H         1 UNK         0.0717 
     85 H85        31.6942   -4.7501   -4.2428 H         1 UNK         0.0717 
     86 H86        27.9532   -4.4433   -6.1755 H         1 UNK         0.0934 
     87 H87        28.2777   -3.3080   -4.9098 H         1 UNK         0.0934 
     88 H88        28.4878   -2.6710   -7.8845 H         1 UNK         0.0739 
     89 H89        26.2145   -2.3059   -6.0232 H         1 UNK         0.3093 
     90 H90        24.0851   -1.1108   -8.5482 H         1 UNK         0.0818 
     91 H91        22.6264   -3.0622   -8.0818 H         1 UNK         0.0819 
     92 H92        23.9487   -3.5335   -9.1344 H         1 UNK         0.0819 
     93 H93        23.9955   -3.9659   -7.4313 H         1 UNK         0.0819 
     94 H94        23.5593   -2.0552   -5.9069 H         1 UNK         0.3041 
     95 H95        24.6829    0.7409   -4.0807 H         1 UNK         0.0784 
     96 H96        22.4916    1.5543   -4.9669 H         1 UNK         0.0793 
     97 H97        21.7983   -0.0467   -4.7490 H         1 UNK         0.0793 
     98 H98        22.3272    0.8907   -3.3509 H         1 UNK         0.0793 
     99 H99        23.2009   -1.4536   -3.1957 H         1 UNK         0.3024 
    100 H100       23.9915   -3.1892   -2.1783 H         1 UNK         0.1171 
    101 H101       26.1801   -4.5198   -3.8684 H         1 UNK         0.0786 
    102 H102       24.9893   -5.3474   -2.8679 H         1 UNK         0.0786 
    103 H103       24.4741   -4.4608   -4.2928 H         1 UNK         0.0786 
    104 H104       26.5447   -4.0391   -1.4202 H         1 UNK         0.2977 
    105 H105       27.1773   -0.4986   -5.4483 H         1 UNK         0.3127 
    106 H106       29.4775    1.1316   -5.0320 H         1 UNK         0.0770 
    107 H107       26.5383    1.9192   -4.6516 H         1 UNK         0.0814 
    108 H108       27.9430    2.5362   -3.7851 H         1 UNK         0.0814 
    109 H109       27.3943    0.8910   -3.5291 H         1 UNK         0.0814 
    110 H110       27.3159    3.4811   -5.6574 H         1 UNK         0.2983 
    111 H111       28.8460    4.7704   -7.5600 H         1 UNK         0.0947 
    112 H112       26.9302    6.3865   -7.6673 H         1 UNK         0.0806 
    113 H113       27.2857    5.9154   -6.0153 H         1 UNK         0.0806 
    114 H114       25.8960    5.2212   -6.8528 H         1 UNK         0.0806 
    115 H115       26.3707    2.4165   -8.2555 H         1 UNK         0.3000 
    116 H116       25.9113    3.1771  -11.0132 H         1 UNK         0.0850 
    117 H117       24.7319    0.9725  -11.0965 H         1 UNK         0.0810 
    118 H118       24.2222    1.9147   -9.7022 H         1 UNK         0.0810 
    119 H119       25.3552    0.5802   -9.5003 H         1 UNK         0.0810 
    120 H120       28.4470    1.3213   -9.4090 H         1 UNK         0.3040 
    121 H121       29.5303    0.4819  -12.0759 H         1 UNK         0.0766 
    122 H122       29.3950   -1.2368   -9.5501 H         1 UNK         0.0812 
    123 H123       30.1697   -1.6915  -11.0598 H         1 UNK         0.0812 
    124 H124       28.4276   -1.4757  -11.0030 H         1 UNK         0.0812 
    125 H125       30.1652    1.9625   -9.0199 H         1 UNK         0.3205 
    126 H126       31.8850    2.9711   -8.1239 H         1 UNK         0.0754 
    127 H127       33.7637    3.8184   -9.4874 H         1 UNK         0.0769 
    128 H128       32.2509    4.0549  -10.3469 H         1 UNK         0.0769 
    129 H129       33.3385    2.7483  -10.8145 H         1 UNK         0.0769 
    130 H130       31.5476    0.3648   -7.4961 H         1 UNK         0.2981 
    131 H131       32.4187   -1.2679   -6.3789 H         1 UNK         0.0541 
    132 H132       32.8384   -1.0479   -9.6128 H         1 UNK         0.3459 
    133 H133       33.6069   -2.5964   -9.8625 H         1 UNK         0.3459 
    134 H134       35.1998   -0.0156   -6.4994 H         1 UNK         0.0612 
    135 H135       34.7106   -1.3118   -5.4563 H         1 UNK         0.0612 
    136 H136       33.8213    0.4400   -2.3394 H         1 UNK         0.0624 
    137 H137       34.5158   -0.9296   -3.1597 H         1 UNK         0.0624 
@<TRIPOS>BOND
     1    1    2 1    
     2    1   72 1    
     3    1   73 1    
     4    1   74 1    
     5    2    3 2    
     6    2    4 am   BACKBONE|DICT|INTERRES
     7    4    5 1    
     8    4   75 1    
     9    5    6 1    
    10    5   35 1    
    11    5   76 1    
    12    6    7 1    
    13    6   77 1    
    14    6   78 1    
    15    7    8 1    
    16    8    9 1    
    17    8   79 1    
    18    8   80 1    
    19    9   10 ar   
    20    9   14 ar   
    21   10   11 ar   
    22   10   81 1    
    23   11   12 ar   
    24   11   71 1    
    25   12   13 ar   
    26   12   82 1    
    27   13   14 ar   
    28   13   15 1    
    29   14   83 1    
    30   15   16 1    
    31   15   84 1    
    32   15   85 1    
    33   16   17 1    
    34   17   18 1    
    35   17   86 1    
    36   17   87 1    
    37   18   19 1    
    38   18   37 1    
    39   18   88 1    
    40   19   20 am   BACKBONE|DICT|INTERRES
    41   19   89 1    
    42   20   21 2    
    43   20   22 1    
    44   22   23 1    
    45   22   24 1    
    46   22   90 1    
    47   23   91 1    
    48   23   92 1    
    49   23   93 1    
    50   24   25 am   BACKBONE|DICT|INTERRES
    51   24   94 1    
    52   25   26 2    
    53   25   27 1    
    54   27   28 1    
    55   27   29 1    
    56   27   95 1    
    57   28   96 1    
    58   28   97 1    
    59   28   98 1    
    60   29   30 am   BACKBONE|DICT|INTERRES
    61   29   99 1    
    62   30   31 2    
    63   30   32 1    
    64   32   33 1    
    65   32   34 1    
    66   32  100 1    
    67   33  101 1    
    68   33  102 1    
    69   33  103 1    
    70   34   35 am   BACKBONE|DICT|INTERRES
    71   34  104 1    
    72   35   36 2    
    73   37   38 2    
    74   37   39 am   BACKBONE|DICT|INTERRES
    75   39   40 1    
    76   39  105 1    
    77   40   41 1    
    78   40   42 1    
    79   40  106 1    
    80   41  107 1    
    81   41  108 1    
    82   41  109 1    
    83   42   43 2    
    84   42   44 am   BACKBONE|DICT|INTERRES
    85   44   45 1    
    86   44  110 1    
    87   45   46 1    
    88   45   47 1    
    89   45  111 1    
    90   46  112 1    
    91   46  113 1    
    92   46  114 1    
    93   47   48 2    
    94   47   49 am   BACKBONE|DICT|INTERRES
    95   49   50 1    
    96   49  115 1    
    97   50   51 1    
    98   50   52 1    
    99   50  116 1    
   100   51  117 1    
   101   51  118 1    
   102   51  119 1    
   103   52   53 2    
   104   52   54 am   BACKBONE|DICT|INTERRES
   105   54   55 1    
   106   54  120 1    
   107   55   56 1    
   108   55   57 1    
   109   55  121 1    
   110   56  122 1    
   111   56  123 1    
   112   56  124 1    
   113   57   58 2    
   114   57   59 am   BACKBONE|DICT|INTERRES
   115   59   60 1    
   116   59  125 1    
   117   60   61 1    
   118   60   62 1    
   119   60  126 1    
   120   61  127 1    
   121   61  128 1    
   122   61  129 1    
   123   62   63 2    
   124   62   64 am   BACKBONE|DICT|INTERRES
   125   64   65 1    
   126   64  130 1    
   127   65   66 1    
   128   65   69 1    
   129   65  131 1    
   130   66   67 am   BACKBONE|DICT|INTERRES
   131   66   68 2    
   132   67  132 1    
   133   67  133 1    
   134   69   70 1    
   135   69  134 1    
   136   69  135 1    
   137   70   71 1    
   138   71  136 1    
   139   71  137 1    
@<TRIPOS>SUBSTRUCTURE
     1 UNK         1 GROUP             0       ****    0 ROOT    
