@<TRIPOS>MOLECULE
3R137
137   139    1
SMALL
USER_CHARGES


@<TRIPOS>ATOM
      1 CA         26.9237    1.1345    1.6278 C.3       0 UNK        -0.2020 
      2 C          27.7509   -0.0069    1.0561 C.2       0 UNK         0.4855 
      3 O          28.9796    0.0393    1.1136 O.2       0 UNK        -0.5197 
      4 N          27.0881   -1.0302    0.5089 N.am      1 UNK        -0.4892 
      5 CA         27.6973   -2.1820   -0.1491 C.3       1 UNK         0.0835 
      6 C6         28.3331   -3.1690    0.8669 C.3       12 UNK        -0.0855 
      7 S7         29.3325   -4.5000    0.1146 S.3       12 UNK        -0.2931 
      8 C8         30.9595   -3.7056   -0.0987 C.3       12 UNK         0.0378 
      9 C9         31.0479   -2.9635   -1.4246 C.ar      12 UNK        -0.0802 
     10 C10        31.1627   -3.6847   -2.6182 C.ar      12 UNK        -0.0944 
     11 C11        31.2277   -3.0194   -3.8453 C.ar      12 UNK        -0.0787 
     12 C12        31.1688   -1.6239   -3.8740 C.ar      12 UNK        -0.0862 
     13 C13        31.0698   -0.8911   -2.6882 C.ar      12 UNK        -0.0733 
     14 C14        31.0212   -1.5649   -1.4639 C.ar      12 UNK        -0.0832 
     15 C15        31.0032    0.6288   -2.7425 C.3       12 UNK         0.0240 
     16 S16        29.3559    1.2891   -2.3196 S.3       12 UNK        -0.2522 
     17 C17        28.2253    0.2869   -3.3413 C.3       12 UNK        -0.0967 
     18 CA         28.1519    0.7356   -4.8237 C.3       5 UNK         0.0660 
     19 N          27.7177   -0.3601   -5.6923 N.am      5 UNK        -0.4015 
     20 C          27.8469   -0.3830   -7.0270 C.2       4 UNK         0.4946 
     21 O          28.4492    0.4787   -7.6670 O.2       4 UNK        -0.5353 
     22 CA         27.1919   -1.5480   -7.7951 C.3       4 UNK         0.0277 
     23 CB         28.2367   -2.6243   -8.1225 C.3       4 UNK        -0.1981 
     24 N          26.0671   -2.1715   -7.0951 N.am      4 UNK        -0.4209 
     25 C          24.9169   -1.5595   -6.7780 C.2       3 UNK         0.4942 
     26 O          24.6422   -0.4079   -7.1131 O.2       3 UNK        -0.5208 
     27 CA         23.9482   -2.3360   -5.8637 C.3       3 UNK         0.0250 
     28 CB         22.9289   -3.1194   -6.7053 C.3       3 UNK        -0.1990 
     29 N          24.6134   -3.2484   -4.9184 N.am      3 UNK        -0.4232 
     30 C          25.5535   -2.8793   -4.0355 C.2       2 UNK         0.4993 
     31 O          25.9591   -1.7195   -3.9344 O.2       2 UNK        -0.5286 
     32 CA         26.2024   -3.9955   -3.1963 C.3       2 UNK         0.0209 
     33 CB         27.0707   -4.9020   -4.0877 C.3       2 UNK        -0.1931 
     34 N          27.0558   -3.4536   -2.1362 N.am      2 UNK        -0.4546 
     35 C          26.6196   -2.8213   -1.0405 C.2       1 UNK         0.5154 
     36 O          25.4282   -2.7198   -0.7295 O.2       1 UNK        -0.5181 
     37 C          27.2280    1.9535   -5.0045 C.2       5 UNK         0.5014 
     38 O          27.7160    3.0628   -5.2211 O.2       5 UNK        -0.5248 
     39 N          25.9085    1.7106   -4.9593 N.am      6 UNK        -0.4434 
     40 CA         24.8639    2.7185   -5.1618 C.3       6 UNK         0.0363 
     41 CB         23.4946    2.1199   -4.8015 C.3       6 UNK        -0.1936 
     42 C          24.8531    3.2866   -6.5911 C.2       6 UNK         0.5081 
     43 O          24.6636    4.4905   -6.7644 O.2       6 UNK        -0.5248 
     44 N          25.0877    2.4181   -7.5840 N.am      7 UNK        -0.4718 
     45 CA         25.2240    2.7823   -8.9971 C.3       7 UNK         0.0273 
     46 CB         25.0629    1.5152   -9.8528 C.3       7 UNK        -0.1935 
     47 C          26.5546    3.4827   -9.3355 C.2       7 UNK         0.5018 
     48 O          26.6579    4.0556  -10.4208 O.2       7 UNK        -0.5186 
     49 N          27.5428    3.4048   -8.4287 N.am      8 UNK        -0.4240 
     50 CA         28.9270    3.8764   -8.5689 C.3       8 UNK         0.0235 
     51 CB         28.9826    5.4174   -8.6336 C.3       8 UNK        -0.2000 
     52 C          29.6600    3.1902   -9.7397 C.2       8 UNK         0.4941 
     53 O          30.3581    3.8490  -10.5127 O.2       8 UNK        -0.5273 
     54 N          29.4727    1.8688   -9.8479 N.am      9 UNK        -0.4262 
     55 CA         29.9913    1.0198  -10.9224 C.3       9 UNK         0.0264 
     56 CB         28.9204   -0.0275  -11.2752 C.3       9 UNK        -0.1955 
     57 C          31.3282    0.3438  -10.5668 C.2       9 UNK         0.5031 
     58 O          31.8380   -0.4250  -11.3837 O.2       9 UNK        -0.5390 
     59 N          31.8623    0.6085   -9.3625 N.am      10 UNK        -0.4204 
     60 CA         33.1424    0.1145   -8.8278 C.3       10 UNK         0.0237 
     61 CB         34.3226    0.7930   -9.5557 C.3       10 UNK        -0.1985 
     62 C          33.2515   -1.4251   -8.8206 C.2       10 UNK         0.4970 
     63 O          34.3103   -1.9742   -9.1306 O.2       10 UNK        -0.4914 
     64 N          32.1334   -2.0808   -8.4845 N.am      11 UNK        -0.4285 
     65 CA         31.9352   -3.5410   -8.4900 C.3       11 UNK         0.1007 
     66 C          31.9010   -4.1887   -9.9086 C.2       11 UNK         0.5703 
     67 N          31.8460   -3.4266  -10.9959 N.am      11 UNK        -0.7361 
     68 O          31.8857   -5.4116  -10.0283 O.2       11 UNK        -0.4986 
     69 C69        32.8596   -4.3178   -7.5022 C.3       12 UNK        -0.0947 
     70 S70        33.0283   -3.5608   -5.8495 S.3       12 UNK        -0.2240 
     71 C71        31.3677   -3.7945   -5.1456 C.3       12 UNK         0.0194 
     72 H72        27.1433    1.2632    2.6873 H         1 UNK         0.0906 
     73 H73        27.1654    2.0644    1.1137 H         1 UNK         0.0906 
     74 H74        25.8537    0.9563    1.5221 H         1 UNK         0.0906 
     75 H75        26.0752   -1.0333    0.4605 H         1 UNK         0.3140 
     76 H76        28.4702   -1.7939   -0.8111 H         1 UNK         0.1085 
     77 H77        27.5545   -3.6304    1.4771 H         1 UNK         0.0836 
     78 H78        28.9694   -2.6306    1.5703 H         1 UNK         0.0836 
     79 H79        31.7306   -4.4770   -0.0726 H         1 UNK         0.0731 
     80 H80        31.1688   -3.0408    0.7409 H         1 UNK         0.0731 
     81 H81        31.1980   -4.7654   -2.5884 H         1 UNK         0.1312 
     82 H82        31.2109   -1.1096   -4.8245 H         1 UNK         0.1406 
     83 H83        30.9332   -0.9976   -0.5461 H         1 UNK         0.1631 
     84 H84        31.2822    0.9912   -3.7330 H         1 UNK         0.0717 
     85 H85        31.7364    1.0460   -2.0509 H         1 UNK         0.0717 
     86 H86        28.5256   -0.7583   -3.2753 H         1 UNK         0.0934 
     87 H87        27.2413    0.3138   -2.8689 H         1 UNK         0.0934 
     88 H88        29.1538    1.0240   -5.1491 H         1 UNK         0.0739 
     89 H89        27.1609   -1.0767   -5.2346 H         1 UNK         0.3093 
     90 H90        26.8124   -1.1440   -8.7349 H         1 UNK         0.0818 
     91 H91        29.0864   -2.1946   -8.6522 H         1 UNK         0.0819 
     92 H92        27.8192   -3.4002   -8.7646 H         1 UNK         0.0819 
     93 H93        28.6171   -3.1037   -7.2202 H         1 UNK         0.0819 
     94 H94        26.1967   -3.1225   -6.7834 H         1 UNK         0.3041 
     95 H95        23.4056   -1.5958   -5.2718 H         1 UNK         0.0784 
     96 H96        22.4079   -2.4592   -7.4005 H         1 UNK         0.0793 
     97 H97        23.4069   -3.9023   -7.2956 H         1 UNK         0.0793 
     98 H98        22.1702   -3.5869   -6.0772 H         1 UNK         0.0793 
     99 H99        24.3333   -4.2184   -4.9560 H         1 UNK         0.3024 
    100 H100       25.4075   -4.5873   -2.7367 H         1 UNK         0.1171 
    101 H101       27.5401   -5.6951   -3.5049 H         1 UNK         0.0786 
    102 H102       26.4777   -5.3875   -4.8636 H         1 UNK         0.0786 
    103 H103       27.8642   -4.3410   -4.5842 H         1 UNK         0.0786 
    104 H104       28.0520   -3.4984   -2.2969 H         1 UNK         0.2977 
    105 H105       25.5987    0.7607   -4.8044 H         1 UNK         0.3127 
    106 H106       25.0645    3.5469   -4.4788 H         1 UNK         0.0770 
    107 H107       23.2405    1.2738   -5.4410 H         1 UNK         0.0814 
    108 H108       22.7038    2.8625   -4.9158 H         1 UNK         0.0814 
    109 H109       23.4699    1.7784   -3.7666 H         1 UNK         0.0814 
    110 H110       25.1382    1.4268   -7.3595 H         1 UNK         0.2983 
    111 H111       24.4181    3.4740   -9.2520 H         1 UNK         0.0947 
    112 H112       25.0837    1.7557  -10.9166 H         1 UNK         0.0806 
    113 H113       24.1149    1.0157   -9.6516 H         1 UNK         0.0806 
    114 H114       25.8649    0.8016   -9.6655 H         1 UNK         0.0806 
    115 H115       27.3434    2.9103   -7.5688 H         1 UNK         0.3000 
    116 H116       29.4453    3.5660   -7.6602 H         1 UNK         0.0850 
    117 H117       30.0140    5.7716   -8.6143 H         1 UNK         0.0810 
    118 H118       28.4698    5.8672   -7.7833 H         1 UNK         0.0810 
    119 H119       28.5243    5.8031   -9.5447 H         1 UNK         0.0810 
    120 H120       28.9401    1.3972   -9.1156 H         1 UNK         0.3040 
    121 H121       30.1705    1.6278  -11.8115 H         1 UNK         0.0766 
    122 H122       27.9878    0.4489  -11.5782 H         1 UNK         0.0812 
    123 H123       28.7021   -0.6814  -10.4324 H         1 UNK         0.0812 
    124 H124       29.2433   -0.6590  -12.1040 H         1 UNK         0.0812 
    125 H125       31.3432    1.2319   -8.7601 H         1 UNK         0.3205 
    126 H126       33.1800    0.4226   -7.7817 H         1 UNK         0.0754 
    127 H127       35.2744    0.5283   -9.0933 H         1 UNK         0.0769 
    128 H128       34.2386    1.8792   -9.5204 H         1 UNK         0.0769 
    129 H129       34.3750    0.4950  -10.6036 H         1 UNK         0.0769 
    130 H130       31.3183   -1.5308   -8.2622 H         1 UNK         0.2981 
    131 H131       30.9185   -3.6802   -8.1282 H         1 UNK         0.0541 
    132 H132       31.8744   -2.4147  -10.9392 H         1 UNK         0.3459 
    133 H133       31.8115   -3.8712  -11.8990 H         1 UNK         0.3459 
    134 H134       32.5000   -5.3397   -7.3699 H         1 UNK         0.0612 
    135 H135       33.8634   -4.4054   -7.9210 H         1 UNK         0.0612 
    136 H136       30.6119   -3.4418   -5.8463 H         1 UNK         0.0624 
    137 H137       31.1847   -4.8591   -4.9922 H         1 UNK         0.0624 
@<TRIPOS>BOND
     1    1    2 1    
     2    1   72 1    
     3    1   73 1    
     4    1   74 1    
     5    2    3 2    
     6    2    4 am   BACKBONE|DICT|INTERRES
     7    4    5 1    
     8    4   75 1    
     9    5    6 1    
    10    5   35 1    
    11    5   76 1    
    12    6    7 1    
    13    6   77 1    
    14    6   78 1    
    15    7    8 1    
    16    8    9 1    
    17    8   79 1    
    18    8   80 1    
    19    9   10 ar   
    20    9   14 ar   
    21   10   11 ar   
    22   10   81 1    
    23   11   12 ar   
    24   11   71 1    
    25   12   13 ar   
    26   12   82 1    
    27   13   14 ar   
    28   13   15 1    
    29   14   83 1    
    30   15   16 1    
    31   15   84 1    
    32   15   85 1    
    33   16   17 1    
    34   17   18 1    
    35   17   86 1    
    36   17   87 1    
    37   18   19 1    
    38   18   37 1    
    39   18   88 1    
    40   19   20 am   BACKBONE|DICT|INTERRES
    41   19   89 1    
    42   20   21 2    
    43   20   22 1    
    44   22   23 1    
    45   22   24 1    
    46   22   90 1    
    47   23   91 1    
    48   23   92 1    
    49   23   93 1    
    50   24   25 am   BACKBONE|DICT|INTERRES
    51   24   94 1    
    52   25   26 2    
    53   25   27 1    
    54   27   28 1    
    55   27   29 1    
    56   27   95 1    
    57   28   96 1    
    58   28   97 1    
    59   28   98 1    
    60   29   30 am   BACKBONE|DICT|INTERRES
    61   29   99 1    
    62   30   31 2    
    63   30   32 1    
    64   32   33 1    
    65   32   34 1    
    66   32  100 1    
    67   33  101 1    
    68   33  102 1    
    69   33  103 1    
    70   34   35 am   BACKBONE|DICT|INTERRES
    71   34  104 1    
    72   35   36 2    
    73   37   38 2    
    74   37   39 am   BACKBONE|DICT|INTERRES
    75   39   40 1    
    76   39  105 1    
    77   40   41 1    
    78   40   42 1    
    79   40  106 1    
    80   41  107 1    
    81   41  108 1    
    82   41  109 1    
    83   42   43 2    
    84   42   44 am   BACKBONE|DICT|INTERRES
    85   44   45 1    
    86   44  110 1    
    87   45   46 1    
    88   45   47 1    
    89   45  111 1    
    90   46  112 1    
    91   46  113 1    
    92   46  114 1    
    93   47   48 2    
    94   47   49 am   BACKBONE|DICT|INTERRES
    95   49   50 1    
    96   49  115 1    
    97   50   51 1    
    98   50   52 1    
    99   50  116 1    
   100   51  117 1    
   101   51  118 1    
   102   51  119 1    
   103   52   53 2    
   104   52   54 am   BACKBONE|DICT|INTERRES
   105   54   55 1    
   106   54  120 1    
   107   55   56 1    
   108   55   57 1    
   109   55  121 1    
   110   56  122 1    
   111   56  123 1    
   112   56  124 1    
   113   57   58 2    
   114   57   59 am   BACKBONE|DICT|INTERRES
   115   59   60 1    
   116   59  125 1    
   117   60   61 1    
   118   60   62 1    
   119   60  126 1    
   120   61  127 1    
   121   61  128 1    
   122   61  129 1    
   123   62   63 2    
   124   62   64 am   BACKBONE|DICT|INTERRES
   125   64   65 1    
   126   64  130 1    
   127   65   66 1    
   128   65   69 1    
   129   65  131 1    
   130   66   67 am   BACKBONE|DICT|INTERRES
   131   66   68 2    
   132   67  132 1    
   133   67  133 1    
   134   69   70 1    
   135   69  134 1    
   136   69  135 1    
   137   70   71 1    
   138   71  136 1    
   139   71  137 1    
@<TRIPOS>SUBSTRUCTURE
     1 UNK         1 GROUP             0       ****    0 ROOT    
