@<TRIPOS>MOLECULE
3R137
137   139    1
SMALL
USER_CHARGES


@<TRIPOS>ATOM
      1 CA         24.7406   -7.3051   -0.5584 C.3       0 UNK        -0.2020 
      2 C          25.0560   -5.8169   -0.5720 C.2       0 UNK         0.4855 
      3 O          24.2347   -5.0138   -0.1291 O.2       0 UNK        -0.5197 
      4 N          26.2404   -5.4429   -1.0754 N.am      1 UNK        -0.4892 
      5 CA         26.7001   -4.0511   -1.1874 C.3       1 UNK         0.0835 
      6 C6         28.2340   -3.9883   -1.4116 C.3       12 UNK        -0.0855 
      7 S7         29.0037   -2.4569   -0.7803 S.3       12 UNK        -0.2931 
      8 C8         29.0015   -1.4056   -2.2668 C.3       12 UNK         0.0378 
      9 C9         30.2652   -0.5685   -2.3632 C.ar      12 UNK        -0.0802 
     10 C10        31.4399   -1.1404   -2.8561 C.ar      12 UNK        -0.0944 
     11 C11        32.6030   -0.3772   -2.9878 C.ar      12 UNK        -0.0787 
     12 C12        32.5832    0.9716   -2.6136 C.ar      12 UNK        -0.0862 
     13 C13        31.4185    1.5510   -2.0946 C.ar      12 UNK        -0.0733 
     14 C14        30.2614    0.7737   -1.9741 C.ar      12 UNK        -0.0832 
     15 C15        31.4331    2.9957   -1.6073 C.3       12 UNK         0.0240 
     16 S16        30.9939    4.1941   -2.9088 S.3       12 UNK        -0.2522 
     17 C17        29.1674    4.0986   -2.9277 C.3       12 UNK        -0.0967 
     18 CA         28.5775    3.9067   -4.3481 C.3       5 UNK         0.0660 
     19 N          29.2485    2.8302   -5.0777 N.am      5 UNK        -0.4015 
     20 C          29.0213    2.4874   -6.3498 C.2       4 UNK         0.4946 
     21 O          28.1747    3.0230   -7.0640 O.2       4 UNK        -0.5353 
     22 CA         29.8407    1.3162   -6.9073 C.3       4 UNK         0.0277 
     23 CB         31.1691    1.0839   -6.1618 C.3       4 UNK        -0.1981 
     24 N          29.0840    0.0631   -6.9671 N.am      4 UNK        -0.4209 
     25 C          28.3118   -0.5018   -6.0300 C.2       3 UNK         0.4942 
     26 O          28.0022    0.0283   -4.9589 O.2       3 UNK        -0.5208 
     27 CA         27.8090   -1.9135   -6.3487 C.3       3 UNK         0.0250 
     28 CB         28.9543   -2.9418   -6.2713 C.3       3 UNK        -0.1990 
     29 N          26.7514   -2.2681   -5.4049 N.am      3 UNK        -0.4232 
     30 C          25.7962   -3.1793   -5.6172 C.2       2 UNK         0.4993 
     31 O          25.7182   -3.8596   -6.6418 O.2       2 UNK        -0.5286 
     32 CA         24.7842   -3.3854   -4.4780 C.3       2 UNK         0.0209 
     33 CB         23.6152   -4.3051   -4.8794 C.3       2 UNK        -0.1931 
     34 N          25.4645   -3.9649   -3.3195 N.am      2 UNK        -0.4546 
     35 C          25.9384   -3.2661   -2.2794 C.2       1 UNK         0.5154 
     36 O          25.7968   -2.0497   -2.1673 O.2       1 UNK        -0.5181 
     37 C          27.0434    3.7333   -4.2713 C.2       5 UNK         0.5014 
     38 O          26.3371    4.7360   -4.1516 O.2       5 UNK        -0.5248 
     39 N          26.5580    2.4838   -4.3279 N.am      6 UNK        -0.4434 
     40 CA         25.1410    2.1444   -4.2151 C.3       6 UNK         0.0363 
     41 CB         25.0094    0.8930   -3.3346 C.3       6 UNK        -0.1936 
     42 C          24.4510    1.8959   -5.5668 C.2       6 UNK         0.5081 
     43 O          23.2235    1.9901   -5.6109 O.2       6 UNK        -0.5248 
     44 N          25.1988    1.5422   -6.6256 N.am      7 UNK        -0.4718 
     45 CA         24.6073    1.0362   -7.8759 C.3       7 UNK         0.0273 
     46 CB         24.3363   -0.4765   -7.7465 C.3       7 UNK        -0.1935 
     47 C          25.3927    1.3616   -9.1583 C.2       7 UNK         0.5018 
     48 O          25.0761    0.7866  -10.2008 O.2       7 UNK        -0.5186 
     49 N          26.3889    2.2556   -9.0928 N.am      8 UNK        -0.4240 
     50 CA         27.2265    2.7784  -10.1867 C.3       8 UNK         0.0235 
     51 CB         26.3811    3.4887  -11.2628 C.3       8 UNK        -0.2000 
     52 C          28.1999    1.7682  -10.8245 C.2       8 UNK         0.4941 
     53 O          29.3313    2.1498  -11.1275 O.2       8 UNK        -0.5273 
     54 N          27.7665    0.5161  -11.0220 N.am      9 UNK        -0.4262 
     55 CA         28.5743   -0.5993  -11.5244 C.3       9 UNK         0.0264 
     56 CB         27.6724   -1.8284  -11.7200 C.3       9 UNK        -0.1955 
     57 C          29.7244   -0.9195  -10.5568 C.2       9 UNK         0.5031 
     58 O          29.4616   -1.1025   -9.3675 O.2       9 UNK        -0.5390 
     59 N          30.9611   -0.9466  -11.0711 N.am      10 UNK        -0.4204 
     60 CA         32.2028   -1.0429  -10.2961 C.3       10 UNK         0.0237 
     61 CB         33.4022   -1.0272  -11.2582 C.3       10 UNK        -0.1985 
     62 C          32.2728   -2.2714   -9.3719 C.2       10 UNK         0.4970 
     63 O          31.9344   -3.3789   -9.7951 O.2       10 UNK        -0.4914 
     64 N          32.7390   -2.0409   -8.1399 N.am      11 UNK        -0.4285 
     65 CA         32.9015   -3.0553   -7.0887 C.3       11 UNK         0.1007 
     66 C          34.1720   -3.9461   -7.2202 C.2       11 UNK         0.5703 
     67 N          35.0827   -3.6771   -8.1487 N.am      11 UNK        -0.7361 
     68 O          34.3247   -4.9116   -6.4757 O.2       11 UNK        -0.4986 
     69 C69        32.7547   -2.4244   -5.6783 C.3       12 UNK        -0.0947 
     70 S70        33.9590   -1.0976   -5.3158 S.3       12 UNK        -0.2240 
     71 C71        33.8860   -1.0233   -3.4973 C.3       12 UNK         0.0194 
     72 H72        23.8445   -7.5038   -1.1459 H         1 UNK         0.0906 
     73 H73        25.5552   -7.9001   -0.9709 H         1 UNK         0.0906 
     74 H74        24.5597   -7.6407    0.4624 H         1 UNK         0.0906 
     75 H75        26.8794   -6.1498   -1.4126 H         1 UNK         0.3140 
     76 H76        26.4732   -3.5648   -0.2355 H         1 UNK         0.1085 
     77 H77        28.5008   -4.1570   -2.4569 H         1 UNK         0.0836 
     78 H78        28.7151   -4.7998   -0.8628 H         1 UNK         0.0836 
     79 H79        28.1212   -0.7615   -2.2496 H         1 UNK         0.0731 
     80 H80        28.9114   -2.0136   -3.1662 H         1 UNK         0.0731 
     81 H81        31.4459   -2.1849   -3.1337 H         1 UNK         0.1312 
     82 H82        33.4826    1.5656   -2.7032 H         1 UNK         0.1406 
     83 H83        29.3586    1.2030   -1.5636 H         1 UNK         0.1631 
     84 H84        32.4298    3.2424   -1.2383 H         1 UNK         0.0717 
     85 H85        30.7647    3.1175   -0.7535 H         1 UNK         0.0717 
     86 H86        28.8361    3.2988   -2.2654 H         1 UNK         0.0934 
     87 H87        28.7832    5.0209   -2.4873 H         1 UNK         0.0934 
     88 H88        28.7619    4.8224   -4.9137 H         1 UNK         0.0739 
     89 H89        29.9457    2.3159   -4.5586 H         1 UNK         0.3093 
     90 H90        30.0823    1.5804   -7.9383 H         1 UNK         0.0818 
     91 H91        31.0131    0.6661   -5.1676 H         1 UNK         0.0819 
     92 H92        31.7964    0.3868   -6.7138 H         1 UNK         0.0819 
     93 H93        31.7405    2.0071   -6.0541 H         1 UNK         0.0819 
     94 H94        29.2125   -0.4547   -7.8416 H         1 UNK         0.3041 
     95 H95        27.4045   -1.9067   -7.3629 H         1 UNK         0.0784 
     96 H96        29.7356   -2.7104   -6.9964 H         1 UNK         0.0793 
     97 H97        29.4165   -2.9630   -5.2846 H         1 UNK         0.0793 
     98 H98        28.6015   -3.9481   -6.4968 H         1 UNK         0.0793 
     99 H99        26.7469   -1.7150   -4.5555 H         1 UNK         0.3024 
    100 H100       24.3654   -2.4075   -4.2275 H         1 UNK         0.1171 
    101 H101       23.0810   -3.9027   -5.7413 H         1 UNK         0.0786 
    102 H102       23.9570   -5.3064   -5.1445 H         1 UNK         0.0786 
    103 H103       22.8934   -4.4023   -4.0682 H         1 UNK         0.0786 
    104 H104       25.6380   -4.9594   -3.3461 H         1 UNK         0.2977 
    105 H105       27.2025    1.7047   -4.4476 H         1 UNK         0.3127 
    106 H106       24.6028    2.9553   -3.7195 H         1 UNK         0.0770 
    107 H107       25.4992    0.0330   -3.7902 H         1 UNK         0.0814 
    108 H108       23.9629    0.6268   -3.1803 H         1 UNK         0.0814 
    109 H109       25.4526    1.0463   -2.3506 H         1 UNK         0.0814 
    110 H110       26.2049    1.5138   -6.5328 H         1 UNK         0.2983 
    111 H111       23.6442    1.5285   -8.0286 H         1 UNK         0.0947 
    112 H112       23.7766   -0.8526   -8.6038 H         1 UNK         0.0806 
    113 H113       23.7483   -0.7085   -6.8585 H         1 UNK         0.0806 
    114 H114       25.2639   -1.0430   -7.6951 H         1 UNK         0.0806 
    115 H115       26.6492    2.6260   -8.1830 H         1 UNK         0.3000 
    116 H116       27.8519    3.5415   -9.7204 H         1 UNK         0.0850 
    117 H117       25.7352    2.7951  -11.8018 H         1 UNK         0.0810 
    118 H118       25.7516    4.2632  -10.8248 H         1 UNK         0.0810 
    119 H119       27.0216    3.9718  -12.0019 H         1 UNK         0.0810 
    120 H120       26.8047    0.3167  -10.7606 H         1 UNK         0.3040 
    121 H121       28.9850   -0.3081  -12.4932 H         1 UNK         0.0766 
    122 H122       28.2429   -2.6739  -12.1067 H         1 UNK         0.0812 
    123 H123       26.8713   -1.6246  -12.4308 H         1 UNK         0.0812 
    124 H124       27.2151   -2.1453  -10.7814 H         1 UNK         0.0812 
    125 H125       31.0682   -0.8097  -12.0655 H         1 UNK         0.3205 
    126 H126       32.2515   -0.1440   -9.6775 H         1 UNK         0.0754 
    127 H127       34.3454   -1.0607  -10.7111 H         1 UNK         0.0769 
    128 H128       33.4155   -0.1207  -11.8639 H         1 UNK         0.0769 
    129 H129       33.3869   -1.8835  -11.9341 H         1 UNK         0.0769 
    130 H130       33.0379   -1.1110   -7.8869 H         1 UNK         0.2981 
    131 H131       32.0686   -3.7531   -7.1941 H         1 UNK         0.0541 
    132 H132       35.8967   -4.2663   -8.2263 H         1 UNK         0.3459 
    133 H133       34.9678   -2.8899   -8.7652 H         1 UNK         0.3459 
    134 H134       31.7565   -1.9965   -5.5813 H         1 UNK         0.0612 
    135 H135       32.8250   -3.1960   -4.9097 H         1 UNK         0.0612 
    136 H136       33.9901   -2.0281   -3.0852 H         1 UNK         0.0624 
    137 H137       34.7505   -0.4613   -3.1409 H         1 UNK         0.0624 
@<TRIPOS>BOND
     1    1    2 1    
     2    1   72 1    
     3    1   73 1    
     4    1   74 1    
     5    2    3 2    
     6    2    4 am   BACKBONE|DICT|INTERRES
     7    4    5 1    
     8    4   75 1    
     9    5    6 1    
    10    5   35 1    
    11    5   76 1    
    12    6    7 1    
    13    6   77 1    
    14    6   78 1    
    15    7    8 1    
    16    8    9 1    
    17    8   79 1    
    18    8   80 1    
    19    9   10 ar   
    20    9   14 ar   
    21   10   11 ar   
    22   10   81 1    
    23   11   12 ar   
    24   11   71 1    
    25   12   13 ar   
    26   12   82 1    
    27   13   14 ar   
    28   13   15 1    
    29   14   83 1    
    30   15   16 1    
    31   15   84 1    
    32   15   85 1    
    33   16   17 1    
    34   17   18 1    
    35   17   86 1    
    36   17   87 1    
    37   18   19 1    
    38   18   37 1    
    39   18   88 1    
    40   19   20 am   BACKBONE|DICT|INTERRES
    41   19   89 1    
    42   20   21 2    
    43   20   22 1    
    44   22   23 1    
    45   22   24 1    
    46   22   90 1    
    47   23   91 1    
    48   23   92 1    
    49   23   93 1    
    50   24   25 am   BACKBONE|DICT|INTERRES
    51   24   94 1    
    52   25   26 2    
    53   25   27 1    
    54   27   28 1    
    55   27   29 1    
    56   27   95 1    
    57   28   96 1    
    58   28   97 1    
    59   28   98 1    
    60   29   30 am   BACKBONE|DICT|INTERRES
    61   29   99 1    
    62   30   31 2    
    63   30   32 1    
    64   32   33 1    
    65   32   34 1    
    66   32  100 1    
    67   33  101 1    
    68   33  102 1    
    69   33  103 1    
    70   34   35 am   BACKBONE|DICT|INTERRES
    71   34  104 1    
    72   35   36 2    
    73   37   38 2    
    74   37   39 am   BACKBONE|DICT|INTERRES
    75   39   40 1    
    76   39  105 1    
    77   40   41 1    
    78   40   42 1    
    79   40  106 1    
    80   41  107 1    
    81   41  108 1    
    82   41  109 1    
    83   42   43 2    
    84   42   44 am   BACKBONE|DICT|INTERRES
    85   44   45 1    
    86   44  110 1    
    87   45   46 1    
    88   45   47 1    
    89   45  111 1    
    90   46  112 1    
    91   46  113 1    
    92   46  114 1    
    93   47   48 2    
    94   47   49 am   BACKBONE|DICT|INTERRES
    95   49   50 1    
    96   49  115 1    
    97   50   51 1    
    98   50   52 1    
    99   50  116 1    
   100   51  117 1    
   101   51  118 1    
   102   51  119 1    
   103   52   53 2    
   104   52   54 am   BACKBONE|DICT|INTERRES
   105   54   55 1    
   106   54  120 1    
   107   55   56 1    
   108   55   57 1    
   109   55  121 1    
   110   56  122 1    
   111   56  123 1    
   112   56  124 1    
   113   57   58 2    
   114   57   59 am   BACKBONE|DICT|INTERRES
   115   59   60 1    
   116   59  125 1    
   117   60   61 1    
   118   60   62 1    
   119   60  126 1    
   120   61  127 1    
   121   61  128 1    
   122   61  129 1    
   123   62   63 2    
   124   62   64 am   BACKBONE|DICT|INTERRES
   125   64   65 1    
   126   64  130 1    
   127   65   66 1    
   128   65   69 1    
   129   65  131 1    
   130   66   67 am   BACKBONE|DICT|INTERRES
   131   66   68 2    
   132   67  132 1    
   133   67  133 1    
   134   69   70 1    
   135   69  134 1    
   136   69  135 1    
   137   70   71 1    
   138   71  136 1    
   139   71  137 1    
@<TRIPOS>SUBSTRUCTURE
     1 UNK         1 GROUP             0       ****    0 ROOT    
