@<TRIPOS>MOLECULE
3R137
137   139    1
SMALL
USER_CHARGES


@<TRIPOS>ATOM
      1 CA         31.8707   -0.8378   -1.7085 C.3       0 UNK        -0.2020 
      2 C          31.3355    0.2090   -0.7388 C.2       0 UNK         0.4855 
      3 O          32.1027    1.0524   -0.2793 O.2       0 UNK        -0.5197 
      4 N          30.0428    0.2101   -0.3961 N.am      1 UNK        -0.4892 
      5 CA         28.9674   -0.6757   -0.8443 C.3       1 UNK         0.0835 
      6 C6         29.0487   -2.0961   -0.2137 C.3       12 UNK        -0.0855 
      7 S7         28.1150   -3.3605   -1.1553 S.3       12 UNK        -0.2931 
      8 C8         29.3956   -4.5270   -1.7230 C.3       12 UNK         0.0378 
      9 C9         29.5943   -4.4471   -3.2294 C.ar      12 UNK        -0.0802 
     10 C10        30.6886   -3.7653   -3.7661 C.ar      12 UNK        -0.0944 
     11 C11        30.8749   -3.6908   -5.1504 C.ar      12 UNK        -0.0787 
     12 C12        29.9643   -4.3282   -6.0024 C.ar      12 UNK        -0.0862 
     13 C13        28.8827   -5.0441   -5.4752 C.ar      12 UNK        -0.0733 
     14 C14        28.6968   -5.0867   -4.0897 C.ar      12 UNK        -0.0832 
     15 C15        27.9505   -5.8350   -6.3838 C.3       12 UNK         0.0240 
     16 S16        26.3568   -4.9943   -6.6580 S.3       12 UNK        -0.2522 
     17 C17        26.4753   -4.4659   -8.4073 C.3       12 UNK        -0.0967 
     18 CA         26.2611   -2.9493   -8.6313 C.3       5 UNK         0.0660 
     19 N          24.9885   -2.4737   -8.0834 N.am      5 UNK        -0.4015 
     20 C          24.4610   -1.2641   -8.3184 C.2       4 UNK         0.4946 
     21 O          24.9578   -0.4362   -9.0808 O.2       4 UNK        -0.5353 
     22 CA         23.1915   -0.8946   -7.5332 C.3       4 UNK         0.0277 
     23 CB         21.9356   -1.3556   -8.2896 C.3       4 UNK        -0.1981 
     24 N          23.1725   -1.4312   -6.1676 N.am      4 UNK        -0.4209 
     25 C          24.0698   -1.1279   -5.2201 C.2       3 UNK         0.4942 
     26 O          25.0290   -0.3709   -5.3951 O.2       3 UNK        -0.5208 
     27 CA         23.8941   -1.8262   -3.8698 C.3       3 UNK         0.0250 
     28 CB         24.4921   -3.2449   -3.9056 C.3       3 UNK        -0.1990 
     29 N          24.5735   -1.0417   -2.8452 N.am      3 UNK        -0.4232 
     30 C          24.2258   -0.9807   -1.5555 C.2       2 UNK         0.4993 
     31 O          23.2627   -1.5828   -1.0767 O.2       2 UNK        -0.5286 
     32 CA         25.1479   -0.1508   -0.6513 C.3       2 UNK         0.0209 
     33 CB         24.7470   -0.2036    0.8385 C.3       2 UNK        -0.1931 
     34 N          26.5164   -0.6327   -0.8276 N.am      2 UNK        -0.4546 
     35 C          27.6327    0.0484   -0.5602 C.2       1 UNK         0.5154 
     36 O          27.6362    1.1990   -0.1103 O.2       1 UNK        -0.5181 
     37 C          27.4594   -2.1211   -8.1312 C.2       5 UNK         0.5014 
     38 O          28.3427   -1.8027   -8.9268 O.2       5 UNK        -0.5248 
     39 N          27.4505   -1.7560   -6.8414 N.am      6 UNK        -0.4434 
     40 CA         28.4773   -0.9231   -6.2216 C.3       6 UNK         0.0363 
     41 CB         28.3507   -0.9707   -4.6921 C.3       6 UNK        -0.1936 
     42 C          28.4279    0.5216   -6.7311 C.2       6 UNK         0.5081 
     43 O          29.4781    1.1031   -7.0036 O.2       6 UNK        -0.5248 
     44 N          27.2089    1.0555   -6.8928 N.am      7 UNK        -0.4718 
     45 CA         26.9496    2.3669   -7.4891 C.3       7 UNK         0.0273 
     46 CB         25.4619    2.7195   -7.3345 C.3       7 UNK        -0.1935 
     47 C          27.3859    2.4436   -8.9627 C.2       7 UNK         0.5018 
     48 O          27.9892    3.4415   -9.3573 O.2       7 UNK        -0.5186 
     49 N          27.1038    1.3840   -9.7360 N.am      8 UNK        -0.4240 
     50 CA         27.5307    1.2331  -11.1293 C.3       8 UNK         0.0235 
     51 CB         26.8070    0.0381  -11.7706 C.3       8 UNK        -0.2000 
     52 C          29.0547    1.0884  -11.2748 C.2       8 UNK         0.4941 
     53 O          29.6350    1.7182  -12.1601 O.2       8 UNK        -0.5273 
     54 N          29.6761    0.2763  -10.4066 N.am      9 UNK        -0.4262 
     55 CA         31.1274    0.0771  -10.3533 C.3       9 UNK         0.0264 
     56 CB         31.4468   -1.1324   -9.4578 C.3       9 UNK        -0.1955 
     57 C          31.8968    1.3134   -9.8579 C.2       9 UNK         0.5031 
     58 O          33.0422    1.5056  -10.2685 O.2       9 UNK        -0.5390 
     59 N          31.2681    2.0986   -8.9690 N.am      10 UNK        -0.4204 
     60 CA         31.8292    3.2286   -8.2185 C.3       10 UNK         0.0237 
     61 CB         32.2132    4.3927   -9.1565 C.3       10 UNK        -0.1985 
     62 C          32.9756    2.7845   -7.2877 C.2       10 UNK         0.4970 
     63 O          33.9672    3.5005   -7.1370 O.2       10 UNK        -0.4914 
     64 N          32.8189    1.5926   -6.6981 N.am      11 UNK        -0.4285 
     65 CA         33.8093    0.9310   -5.8373 C.3       11 UNK         0.1007 
     66 C          33.8869    1.4777   -4.3815 C.2       11 UNK         0.5703 
     67 N          32.9633    2.3219   -3.9365 N.am      11 UNK        -0.7361 
     68 O          34.8125    1.1382   -3.6483 O.2       11 UNK        -0.4986 
     69 C69        33.6450   -0.6118   -5.8848 C.3       12 UNK        -0.0947 
     70 S70        31.9975   -1.1707   -5.3448 S.3       12 UNK        -0.2240 
     71 C71        32.0822   -2.9491   -5.7103 C.3       12 UNK         0.0194 
     72 H72        32.0937   -1.7672   -1.1866 H         1 UNK         0.0906 
     73 H73        31.1668   -1.0407   -2.5119 H         1 UNK         0.0906 
     74 H74        32.7932   -0.4869   -2.1707 H         1 UNK         0.0906 
     75 H75        29.6908    0.9592    0.1903 H         1 UNK         0.3140 
     76 H76        29.0324   -0.7620   -1.9278 H         1 UNK         0.1085 
     77 H77        30.0859   -2.4169   -0.1318 H         1 UNK         0.0836 
     78 H78        28.6793   -2.0825    0.8137 H         1 UNK         0.0836 
     79 H79        30.3386   -4.3631   -1.2005 H         1 UNK         0.0731 
     80 H80        29.0835   -5.5379   -1.4566 H         1 UNK         0.0731 
     81 H81        31.4018   -3.2916   -3.1077 H         1 UNK         0.1312 
     82 H82        30.1108   -4.2888   -7.0732 H         1 UNK         0.1406 
     83 H83        27.8587   -5.6333   -3.6784 H         1 UNK         0.1631 
     84 H84        27.7466   -6.8027   -5.9232 H         1 UNK         0.0717 
     85 H85        28.4421   -6.0645   -7.3296 H         1 UNK         0.0717 
     86 H86        27.4280   -4.7749   -8.8408 H         1 UNK         0.0934 
     87 H87        25.7183   -5.0195   -8.9650 H         1 UNK         0.0934 
     88 H88        26.2113   -2.7913   -9.7110 H         1 UNK         0.0739 
     89 H89        24.5194   -3.0949   -7.4411 H         1 UNK         0.3093 
     90 H90        23.1621    0.1943   -7.4574 H         1 UNK         0.0818 
     91 H91        21.0261   -1.0140   -7.7950 H         1 UNK         0.0819 
     92 H92        21.9213   -0.9511   -9.3029 H         1 UNK         0.0819 
     93 H93        21.8865   -2.4421   -8.3721 H         1 UNK         0.0819 
     94 H94        22.4189   -2.0645   -5.9399 H         1 UNK         0.3041 
     95 H95        22.8263   -1.8790   -3.6455 H         1 UNK         0.0784 
     96 H96        24.0167   -3.8581   -4.6720 H         1 UNK         0.0793 
     97 H97        25.5626   -3.2265   -4.1163 H         1 UNK         0.0793 
     98 H98        24.3524   -3.7569   -2.9533 H         1 UNK         0.0793 
     99 H99        25.3315   -0.4687   -3.1944 H         1 UNK         0.3024 
    100 H100       25.0844    0.8852   -0.9923 H         1 UNK         0.1171 
    101 H101       23.7220    0.1415    0.9804 H         1 UNK         0.0786 
    102 H102       25.3869    0.4346    1.4479 H         1 UNK         0.0786 
    103 H103       24.8104   -1.2175    1.2351 H         1 UNK         0.0786 
    104 H104       26.6083   -1.5830   -1.1706 H         1 UNK         0.2977 
    105 H105       26.6703   -2.0280   -6.2620 H         1 UNK         0.3127 
    106 H106       29.4427   -1.3430   -6.5026 H         1 UNK         0.0770 
    107 H107       27.4252   -0.5168   -4.3406 H         1 UNK         0.0814 
    108 H108       29.1762   -0.4270   -4.2325 H         1 UNK         0.0814 
    109 H109       28.3865   -1.9946   -4.3214 H         1 UNK         0.0814 
    110 H110       26.4030    0.5140   -6.5943 H         1 UNK         0.2983 
    111 H111       27.5347    3.1028   -6.9332 H         1 UNK         0.0947 
    112 H112       25.2570    3.7191   -7.7199 H         1 UNK         0.0806 
    113 H113       25.1572    2.7052   -6.2878 H         1 UNK         0.0806 
    114 H114       24.8224    2.0238   -7.8778 H         1 UNK         0.0806 
    115 H115       26.5315    0.6369   -9.3499 H         1 UNK         0.3000 
    116 H116       27.2324    2.1362  -11.6661 H         1 UNK         0.0850 
    117 H117       27.0976   -0.0804  -12.8153 H         1 UNK         0.0810 
    118 H118       25.7253    0.1721  -11.7478 H         1 UNK         0.0810 
    119 H119       27.0378   -0.8964  -11.2584 H         1 UNK         0.0810 
    120 H120       29.1175   -0.2757   -9.7588 H         1 UNK         0.3040 
    121 H121       31.4748   -0.1451  -11.3645 H         1 UNK         0.0766 
    122 H122       32.5220   -1.3076   -9.4019 H         1 UNK         0.0812 
    123 H123       30.9897   -2.0435   -9.8441 H         1 UNK         0.0812 
    124 H124       31.0868   -0.9856   -8.4387 H         1 UNK         0.0812 
    125 H125       30.3588    1.7878   -8.6378 H         1 UNK         0.3205 
    126 H126       31.0290    3.5821   -7.5666 H         1 UNK         0.0754 
    127 H127       32.4961    5.2772   -8.5847 H         1 UNK         0.0769 
    128 H128       31.3772    4.6746   -9.7970 H         1 UNK         0.0769 
    129 H129       33.0571    4.1378   -9.7982 H         1 UNK         0.0769 
    130 H130       31.9506    1.0924   -6.8334 H         1 UNK         0.2981 
    131 H131       34.7900    1.1446   -6.2667 H         1 UNK         0.0541 
    132 H132       32.2011    2.6031   -4.5308 H         1 UNK         0.3459 
    133 H133       33.0263    2.6678   -2.9923 H         1 UNK         0.3459 
    134 H134       34.4038   -1.1034   -5.2733 H         1 UNK         0.0612 
    135 H135       33.8066   -0.9641   -6.9048 H         1 UNK         0.0612 
    136 H136       32.1592   -3.0864   -6.7899 H         1 UNK         0.0624 
    137 H137       32.9912   -3.3651   -5.2737 H         1 UNK         0.0624 
@<TRIPOS>BOND
     1    1    2 1    
     2    1   72 1    
     3    1   73 1    
     4    1   74 1    
     5    2    3 2    
     6    2    4 am   BACKBONE|DICT|INTERRES
     7    4    5 1    
     8    4   75 1    
     9    5    6 1    
    10    5   35 1    
    11    5   76 1    
    12    6    7 1    
    13    6   77 1    
    14    6   78 1    
    15    7    8 1    
    16    8    9 1    
    17    8   79 1    
    18    8   80 1    
    19    9   10 ar   
    20    9   14 ar   
    21   10   11 ar   
    22   10   81 1    
    23   11   12 ar   
    24   11   71 1    
    25   12   13 ar   
    26   12   82 1    
    27   13   14 ar   
    28   13   15 1    
    29   14   83 1    
    30   15   16 1    
    31   15   84 1    
    32   15   85 1    
    33   16   17 1    
    34   17   18 1    
    35   17   86 1    
    36   17   87 1    
    37   18   19 1    
    38   18   37 1    
    39   18   88 1    
    40   19   20 am   BACKBONE|DICT|INTERRES
    41   19   89 1    
    42   20   21 2    
    43   20   22 1    
    44   22   23 1    
    45   22   24 1    
    46   22   90 1    
    47   23   91 1    
    48   23   92 1    
    49   23   93 1    
    50   24   25 am   BACKBONE|DICT|INTERRES
    51   24   94 1    
    52   25   26 2    
    53   25   27 1    
    54   27   28 1    
    55   27   29 1    
    56   27   95 1    
    57   28   96 1    
    58   28   97 1    
    59   28   98 1    
    60   29   30 am   BACKBONE|DICT|INTERRES
    61   29   99 1    
    62   30   31 2    
    63   30   32 1    
    64   32   33 1    
    65   32   34 1    
    66   32  100 1    
    67   33  101 1    
    68   33  102 1    
    69   33  103 1    
    70   34   35 am   BACKBONE|DICT|INTERRES
    71   34  104 1    
    72   35   36 2    
    73   37   38 2    
    74   37   39 am   BACKBONE|DICT|INTERRES
    75   39   40 1    
    76   39  105 1    
    77   40   41 1    
    78   40   42 1    
    79   40  106 1    
    80   41  107 1    
    81   41  108 1    
    82   41  109 1    
    83   42   43 2    
    84   42   44 am   BACKBONE|DICT|INTERRES
    85   44   45 1    
    86   44  110 1    
    87   45   46 1    
    88   45   47 1    
    89   45  111 1    
    90   46  112 1    
    91   46  113 1    
    92   46  114 1    
    93   47   48 2    
    94   47   49 am   BACKBONE|DICT|INTERRES
    95   49   50 1    
    96   49  115 1    
    97   50   51 1    
    98   50   52 1    
    99   50  116 1    
   100   51  117 1    
   101   51  118 1    
   102   51  119 1    
   103   52   53 2    
   104   52   54 am   BACKBONE|DICT|INTERRES
   105   54   55 1    
   106   54  120 1    
   107   55   56 1    
   108   55   57 1    
   109   55  121 1    
   110   56  122 1    
   111   56  123 1    
   112   56  124 1    
   113   57   58 2    
   114   57   59 am   BACKBONE|DICT|INTERRES
   115   59   60 1    
   116   59  125 1    
   117   60   61 1    
   118   60   62 1    
   119   60  126 1    
   120   61  127 1    
   121   61  128 1    
   122   61  129 1    
   123   62   63 2    
   124   62   64 am   BACKBONE|DICT|INTERRES
   125   64   65 1    
   126   64  130 1    
   127   65   66 1    
   128   65   69 1    
   129   65  131 1    
   130   66   67 am   BACKBONE|DICT|INTERRES
   131   66   68 2    
   132   67  132 1    
   133   67  133 1    
   134   69   70 1    
   135   69  134 1    
   136   69  135 1    
   137   70   71 1    
   138   71  136 1    
   139   71  137 1    
@<TRIPOS>SUBSTRUCTURE
     1 UNK         1 GROUP             0       ****    0 ROOT    
