@<TRIPOS>MOLECULE
3R137
137   139    1
SMALL
USER_CHARGES


@<TRIPOS>ATOM
      1 CA         26.9045   -4.6079    1.7799 C.3       0 UNK        -0.2020 
      2 C          28.2077   -3.8166    1.8622 C.2       0 UNK         0.4855 
      3 O          28.7587   -3.6943    2.9548 O.2       0 UNK        -0.5197 
      4 N          28.7567   -3.2684    0.7681 N.am      1 UNK        -0.4892 
      5 CA         28.2541   -3.2263   -0.6139 C.3       1 UNK         0.0835 
      6 C6         28.0571   -4.6197   -1.2876 C.3       12 UNK        -0.0855 
      7 S7         29.4527   -5.7939   -1.1361 S.3       12 UNK        -0.2931 
      8 C8         30.9263   -4.8192   -1.6111 C.3       12 UNK         0.0378 
      9 C9         30.7752   -4.0358   -2.9130 C.ar      12 UNK        -0.0802 
     10 C10        31.2907   -2.7370   -2.9967 C.ar      12 UNK        -0.0944 
     11 C11        31.1419   -1.9822   -4.1639 C.ar      12 UNK        -0.0787 
     12 C12        30.4450   -2.5331   -5.2430 C.ar      12 UNK        -0.0862 
     13 C13        29.9574   -3.8406   -5.1917 C.ar      12 UNK        -0.0733 
     14 C14        30.1403   -4.5935   -4.0294 C.ar      12 UNK        -0.0832 
     15 C15        29.2559   -4.4399   -6.4034 C.3       12 UNK         0.0240 
     16 S16        27.5158   -4.8816   -6.0870 S.3       12 UNK        -0.2522 
     17 C17        26.7896   -3.3199   -5.4905 C.3       12 UNK        -0.0967 
     18 CA         26.3978   -2.3414   -6.6323 C.3       5 UNK         0.0660 
     19 N          25.1241   -1.6719   -6.3638 N.am      5 UNK        -0.4015 
     20 C          24.4059   -0.9897   -7.2672 C.2       4 UNK         0.4946 
     21 O          24.6981   -0.9118   -8.4605 O.2       4 UNK        -0.5353 
     22 CA         23.1643   -0.2442   -6.7437 C.3       4 UNK         0.0277 
     23 CB         21.9246   -1.1502   -6.8118 C.3       4 UNK        -0.1981 
     24 N          23.3299    0.2569   -5.3751 N.am      4 UNK        -0.4209 
     25 C          24.1861    1.2285   -5.0262 C.2       3 UNK         0.4942 
     26 O          24.8858    1.8410   -5.8297 O.2       3 UNK        -0.5208 
     27 CA         24.3309    1.5307   -3.5250 C.3       3 UNK         0.0250 
     28 CB         23.2727    2.5505   -3.0755 C.3       3 UNK        -0.1990 
     29 N          24.2639    0.3389   -2.6713 N.am      3 UNK        -0.4232 
     30 C          25.0942   -0.7100   -2.7524 C.2       2 UNK         0.4993 
     31 O          25.9908   -0.8135   -3.5946 O.2       2 UNK        -0.5286 
     32 CA         24.8228   -1.8688   -1.7815 C.3       2 UNK         0.0209 
     33 CB         23.7333   -2.7939   -2.3500 C.3       2 UNK        -0.1931 
     34 N          26.0298   -2.6594   -1.5348 N.am      2 UNK        -0.4546 
     35 C          27.0347   -2.2817   -0.7325 C.2       1 UNK         0.5154 
     36 O          27.0212   -1.2321   -0.0846 O.2       1 UNK        -0.5181 
     37 C          27.4953   -1.2919   -6.8822 C.2       5 UNK         0.5014 
     38 O          28.2037   -1.3698   -7.8873 O.2       5 UNK        -0.5248 
     39 N          27.5845   -0.3051   -5.9777 N.am      6 UNK        -0.4434 
     40 CA         28.5084    0.8262   -6.0635 C.3       6 UNK         0.0363 
     41 CB         28.4053    1.6780   -4.7897 C.3       6 UNK        -0.1936 
     42 C          28.2958    1.6840   -7.3202 C.2       6 UNK         0.5081 
     43 O          29.2756    2.0643   -7.9544 O.2       6 UNK        -0.5248 
     44 N          27.0340    1.9348   -7.6945 N.am      7 UNK        -0.4718 
     45 CA         26.6634    2.6410   -8.9246 C.3       7 UNK         0.0273 
     46 CB         25.1474    2.8921   -8.9378 C.3       7 UNK        -0.1935 
     47 C          27.0977    1.9090  -10.2072 C.2       7 UNK         0.5018 
     48 O          27.4637    2.5704  -11.1794 O.2       7 UNK        -0.5186 
     49 N          27.0571    0.5695  -10.1880 N.am      8 UNK        -0.4240 
     50 CA         27.4888   -0.2816  -11.2958 C.3       8 UNK         0.0235 
     51 CB         26.8461   -1.6724  -11.1607 C.3       8 UNK        -0.2000 
     52 C          29.0195   -0.3891  -11.3863 C.2       8 UNK         0.4941 
     53 O          29.5728   -0.2194  -12.4735 O.2       8 UNK        -0.5273 
     54 N          29.6741   -0.6854  -10.2552 N.am      9 UNK        -0.4262 
     55 CA         31.1163   -0.9450  -10.1835 C.3       9 UNK         0.0264 
     56 CB         31.3892   -1.8660   -8.9872 C.3       9 UNK        -0.1955 
     57 C          31.9865    0.3205  -10.0806 C.2       9 UNK         0.5031 
     58 O          33.2034    0.2157  -10.2452 O.2       9 UNK        -0.5390 
     59 N          31.3795    1.4731   -9.7671 N.am      10 UNK        -0.4204 
     60 CA         31.9745    2.7893   -9.4958 C.3       10 UNK         0.0237 
     61 CB         32.8459    3.2998  -10.6611 C.3       10 UNK        -0.1985 
     62 C          32.7165    2.8547   -8.1493 C.2       10 UNK         0.4970 
     63 O          32.4544    3.7705   -7.3687 O.2       10 UNK        -0.4914 
     64 N          33.6129    1.8905   -7.9003 N.am      11 UNK        -0.4285 
     65 CA         34.3920    1.7134   -6.6597 C.3       11 UNK         0.1007 
     66 C          35.3558    2.8914   -6.3128 C.2       11 UNK         0.5703 
     67 N          35.7531    3.7193   -7.2722 N.am      11 UNK        -0.7361 
     68 O          35.7827    3.0416   -5.1700 O.2       11 UNK        -0.4986 
     69 C69        33.5057    1.2656   -5.4584 C.3       12 UNK        -0.0947 
     70 S70        32.7518   -0.3659   -5.7536 S.3       12 UNK        -0.2240 
     71 C71        31.7353   -0.5789   -4.2556 C.3       12 UNK         0.0194 
     72 H72        27.0964   -5.6116    1.4022 H         1 UNK         0.0906 
     73 H73        26.4638   -4.7093    2.7715 H         1 UNK         0.0906 
     74 H74        26.1613   -4.1264    1.1483 H         1 UNK         0.0906 
     75 H75        29.6038   -2.7356    0.9056 H         1 UNK         0.3140 
     76 H76        29.0296   -2.7082   -1.1777 H         1 UNK         0.1085 
     77 H77        27.8703   -4.4908   -2.3551 H         1 UNK         0.0836 
     78 H78        27.1717   -5.1236   -0.8998 H         1 UNK         0.0836 
     79 H79        31.7746   -5.4975   -1.7104 H         1 UNK         0.0731 
     80 H80        31.1697   -4.1471   -0.7870 H         1 UNK         0.0731 
     81 H81        31.8105   -2.3113   -2.1491 H         1 UNK         0.1312 
     82 H82        30.3034   -1.9460   -6.1362 H         1 UNK         0.1406 
     83 H83        29.7617   -5.6058   -3.9871 H         1 UNK         0.1631 
     84 H84        29.7923   -5.3383   -6.7115 H         1 UNK         0.0717 
     85 H85        29.2974   -3.7600   -7.2549 H         1 UNK         0.0717 
     86 H86        25.8987   -3.6150   -4.9350 H         1 UNK         0.0934 
     87 H87        27.4389   -2.8603   -4.7424 H         1 UNK         0.0934 
     88 H88        26.2673   -2.9079   -7.5573 H         1 UNK         0.0739 
     89 H89        24.8526   -1.6120   -5.3931 H         1 UNK         0.3093 
     90 H90        22.9966    0.6139   -7.3982 H         1 UNK         0.0818 
     91 H91        21.7678   -1.5191   -7.8266 H         1 UNK         0.0819 
     92 H92        22.0200   -2.0199   -6.1604 H         1 UNK         0.0819 
     93 H93        21.0223   -0.6106   -6.5232 H         1 UNK         0.0819 
     94 H94        22.7787   -0.1825   -4.6523 H         1 UNK         0.3041 
     95 H95        25.3161    1.9782   -3.3786 H         1 UNK         0.0784 
     96 H96        23.3180    3.4537   -3.6861 H         1 UNK         0.0793 
     97 H97        22.2614    2.1507   -3.1600 H         1 UNK         0.0793 
     98 H98        23.4289    2.8550   -2.0404 H         1 UNK         0.0793 
     99 H99        23.5430    0.3353   -1.9634 H         1 UNK         0.3024 
    100 H100       24.4765   -1.4551   -0.8312 H         1 UNK         0.1171 
    101 H101       23.5122   -3.6119   -1.6639 H         1 UNK         0.0786 
    102 H102       22.8001   -2.2526   -2.5113 H         1 UNK         0.0786 
    103 H103       24.0260   -3.2302   -3.3056 H         1 UNK         0.0786 
    104 H104       26.1187   -3.5156   -2.0604 H         1 UNK         0.2977 
    105 H105       26.9785   -0.3429   -5.1607 H         1 UNK         0.3127 
    106 H106       29.5180    0.4167   -6.1230 H         1 UNK         0.0770 
    107 H107       27.4228    2.1401   -4.6929 H         1 UNK         0.0814 
    108 H108       29.1442    2.4804   -4.7994 H         1 UNK         0.0814 
    109 H109       28.5833    1.0808   -3.8952 H         1 UNK         0.0814 
    110 H110       26.2739    1.6645   -7.0737 H         1 UNK         0.2983 
    111 H111       27.1702    3.6084   -8.9144 H         1 UNK         0.0947 
    112 H112       24.5853    1.9579   -8.9132 H         1 UNK         0.0806 
    113 H113       24.8474    3.4316   -9.8371 H         1 UNK         0.0806 
    114 H114       24.8374    3.4920   -8.0820 H         1 UNK         0.0806 
    115 H115       26.7328    0.1044   -9.3493 H         1 UNK         0.3000 
    116 H116       27.1312    0.1601  -12.2288 H         1 UNK         0.0850 
    117 H117       27.1375   -2.3192  -11.9892 H         1 UNK         0.0810 
    118 H118       25.7578   -1.6062  -11.1674 H         1 UNK         0.0810 
    119 H119       27.1409   -2.1716  -10.2372 H         1 UNK         0.0810 
    120 H120       29.1365   -0.8379   -9.4023 H         1 UNK         0.3040 
    121 H121       31.4223   -1.4736  -11.0890 H         1 UNK         0.0766 
    122 H122       30.8133   -2.7892   -9.0508 H         1 UNK         0.0812 
    123 H123       31.1318   -1.3675   -8.0554 H         1 UNK         0.0812 
    124 H124       32.4434   -2.1406   -8.9301 H         1 UNK         0.0812 
    125 H125       30.3952    1.4228   -9.5223 H         1 UNK         0.3205 
    126 H126       31.1257    3.4703   -9.4129 H         1 UNK         0.0754 
    127 H127       33.1607    4.3291  -10.4846 H         1 UNK         0.0769 
    128 H128       32.2947    3.2863  -11.6014 H         1 UNK         0.0769 
    129 H129       33.7503    2.7061  -10.7943 H         1 UNK         0.0769 
    130 H130       33.7505    1.1891   -8.6216 H         1 UNK         0.2981 
    131 H131       35.0723    0.8882   -6.8729 H         1 UNK         0.0541 
    132 H132       35.4228    3.6026   -8.2164 H         1 UNK         0.3459 
    133 H133       36.3847    4.4711   -7.0453 H         1 UNK         0.3459 
    134 H134       34.0967    1.1826   -4.5449 H         1 UNK         0.0612 
    135 H135       32.7215    1.9966   -5.2559 H         1 UNK         0.0612 
    136 H136       30.9330    0.1580   -4.2490 H         1 UNK         0.0624 
    137 H137       32.3564   -0.3708   -3.3831 H         1 UNK         0.0624 
@<TRIPOS>BOND
     1    1    2 1    
     2    1   72 1    
     3    1   73 1    
     4    1   74 1    
     5    2    3 2    
     6    2    4 am   BACKBONE|DICT|INTERRES
     7    4    5 1    
     8    4   75 1    
     9    5    6 1    
    10    5   35 1    
    11    5   76 1    
    12    6    7 1    
    13    6   77 1    
    14    6   78 1    
    15    7    8 1    
    16    8    9 1    
    17    8   79 1    
    18    8   80 1    
    19    9   10 ar   
    20    9   14 ar   
    21   10   11 ar   
    22   10   81 1    
    23   11   12 ar   
    24   11   71 1    
    25   12   13 ar   
    26   12   82 1    
    27   13   14 ar   
    28   13   15 1    
    29   14   83 1    
    30   15   16 1    
    31   15   84 1    
    32   15   85 1    
    33   16   17 1    
    34   17   18 1    
    35   17   86 1    
    36   17   87 1    
    37   18   19 1    
    38   18   37 1    
    39   18   88 1    
    40   19   20 am   BACKBONE|DICT|INTERRES
    41   19   89 1    
    42   20   21 2    
    43   20   22 1    
    44   22   23 1    
    45   22   24 1    
    46   22   90 1    
    47   23   91 1    
    48   23   92 1    
    49   23   93 1    
    50   24   25 am   BACKBONE|DICT|INTERRES
    51   24   94 1    
    52   25   26 2    
    53   25   27 1    
    54   27   28 1    
    55   27   29 1    
    56   27   95 1    
    57   28   96 1    
    58   28   97 1    
    59   28   98 1    
    60   29   30 am   BACKBONE|DICT|INTERRES
    61   29   99 1    
    62   30   31 2    
    63   30   32 1    
    64   32   33 1    
    65   32   34 1    
    66   32  100 1    
    67   33  101 1    
    68   33  102 1    
    69   33  103 1    
    70   34   35 am   BACKBONE|DICT|INTERRES
    71   34  104 1    
    72   35   36 2    
    73   37   38 2    
    74   37   39 am   BACKBONE|DICT|INTERRES
    75   39   40 1    
    76   39  105 1    
    77   40   41 1    
    78   40   42 1    
    79   40  106 1    
    80   41  107 1    
    81   41  108 1    
    82   41  109 1    
    83   42   43 2    
    84   42   44 am   BACKBONE|DICT|INTERRES
    85   44   45 1    
    86   44  110 1    
    87   45   46 1    
    88   45   47 1    
    89   45  111 1    
    90   46  112 1    
    91   46  113 1    
    92   46  114 1    
    93   47   48 2    
    94   47   49 am   BACKBONE|DICT|INTERRES
    95   49   50 1    
    96   49  115 1    
    97   50   51 1    
    98   50   52 1    
    99   50  116 1    
   100   51  117 1    
   101   51  118 1    
   102   51  119 1    
   103   52   53 2    
   104   52   54 am   BACKBONE|DICT|INTERRES
   105   54   55 1    
   106   54  120 1    
   107   55   56 1    
   108   55   57 1    
   109   55  121 1    
   110   56  122 1    
   111   56  123 1    
   112   56  124 1    
   113   57   58 2    
   114   57   59 am   BACKBONE|DICT|INTERRES
   115   59   60 1    
   116   59  125 1    
   117   60   61 1    
   118   60   62 1    
   119   60  126 1    
   120   61  127 1    
   121   61  128 1    
   122   61  129 1    
   123   62   63 2    
   124   62   64 am   BACKBONE|DICT|INTERRES
   125   64   65 1    
   126   64  130 1    
   127   65   66 1    
   128   65   69 1    
   129   65  131 1    
   130   66   67 am   BACKBONE|DICT|INTERRES
   131   66   68 2    
   132   67  132 1    
   133   67  133 1    
   134   69   70 1    
   135   69  134 1    
   136   69  135 1    
   137   70   71 1    
   138   71  136 1    
   139   71  137 1    
@<TRIPOS>SUBSTRUCTURE
     1 UNK         1 GROUP             0       ****    0 ROOT    
