@<TRIPOS>MOLECULE
3R137
137   139    1
SMALL
USER_CHARGES


@<TRIPOS>ATOM
      1 CA         27.7139    0.8415   -1.0925 C.3       0 UNK        -0.2020 
      2 C          27.3911   -0.5175   -1.6927 C.2       0 UNK         0.4855 
      3 O          26.9743   -0.5955   -2.8489 O.2       0 UNK        -0.5197 
      4 N          27.5809   -1.5858   -0.9067 N.am      1 UNK        -0.4892 
      5 CA         27.2901   -2.9728   -1.2948 C.3       1 UNK         0.0835 
      6 C6         28.0172   -4.0120   -0.4001 C.3       12 UNK        -0.0855 
      7 S7         29.8016   -3.7061   -0.1680 S.3       12 UNK        -0.2931 
      8 C8         30.5525   -4.7312   -1.4743 C.3       12 UNK         0.0378 
      9 C9         30.5734   -4.0056   -2.8113 C.ar      12 UNK        -0.0802 
     10 C10        31.3832   -2.8762   -2.9712 C.ar      12 UNK        -0.0944 
     11 C11        31.4166   -2.1839   -4.1839 C.ar      12 UNK        -0.0787 
     12 C12        30.6171   -2.6351   -5.2390 C.ar      12 UNK        -0.0862 
     13 C13        29.8228   -3.7769   -5.1071 C.ar      12 UNK        -0.0733 
     14 C14        29.8047   -4.4619   -3.8876 C.ar      12 UNK        -0.0832 
     15 C15        29.0055   -4.2643   -6.2989 C.3       12 UNK         0.0240 
     16 S16        27.2119   -4.3571   -5.9828 S.3       12 UNK        -0.2522 
     17 C17        26.8278   -2.7250   -5.2717 C.3       12 UNK        -0.0967 
     18 CA         26.6053   -1.6085   -6.3281 C.3       5 UNK         0.0660 
     19 N          25.4491   -0.7735   -5.9855 N.am      5 UNK        -0.4015 
     20 C          24.9735    0.2705   -6.6802 C.2       4 UNK         0.4946 
     21 O          25.5160    0.7027   -7.6969 O.2       4 UNK        -0.5353 
     22 CA         23.6783    0.9425   -6.1706 C.3       4 UNK         0.0277 
     23 CB         22.8049    1.4456   -7.3349 C.3       4 UNK        -0.1981 
     24 N          22.8753    0.0520   -5.3240 N.am      4 UNK        -0.4209 
     25 C          23.0938   -0.1686   -4.0222 C.2       3 UNK         0.4942 
     26 O          23.9300    0.4534   -3.3635 O.2       3 UNK        -0.5208 
     27 CA         22.3168   -1.3220   -3.3692 C.3       3 UNK         0.0250 
     28 CB         22.1527   -2.5360   -4.3157 C.3       3 UNK        -0.1990 
     29 N          23.0510   -1.7062   -2.1674 N.am      3 UNK        -0.4232 
     30 C          22.6371   -2.5208   -1.1929 C.2       2 UNK         0.4993 
     31 O          21.5229   -3.0476   -1.1728 O.2       2 UNK        -0.5286 
     32 CA         23.6243   -2.7737   -0.0349 C.3       2 UNK         0.0209 
     33 CB         23.4121   -4.1528    0.6271 C.3       2 UNK        -0.1931 
     34 N          25.0434   -2.5845   -0.3807 N.am      2 UNK        -0.4546 
     35 C          25.7747   -3.2686   -1.2784 C.2       1 UNK         0.5154 
     36 O          25.3159   -4.1175   -2.0426 O.2       1 UNK        -0.5181 
     37 C          27.8812   -0.7707   -6.5389 C.2       5 UNK         0.5014 
     38 O          28.5449   -0.9129   -7.5658 O.2       5 UNK        -0.5248 
     39 N          28.1598    0.1277   -5.5843 N.am      6 UNK        -0.4434 
     40 CA         29.2896    1.0595   -5.6138 C.3       6 UNK         0.0363 
     41 CB         29.4498    1.6878   -4.2211 C.3       6 UNK        -0.1936 
     42 C          29.2032    2.1559   -6.6933 C.2       6 UNK         0.5081 
     43 O          30.2177    2.8006   -6.9578 O.2       6 UNK        -0.5248 
     44 N          28.0172    2.3718   -7.2791 N.am      7 UNK        -0.4718 
     45 CA         27.8178    3.2729   -8.4162 C.3       7 UNK         0.0273 
     46 CB         26.4585    3.9799   -8.2846 C.3       7 UNK        -0.1935 
     47 C          27.9106    2.5093   -9.7467 C.2       7 UNK         0.5018 
     48 O          28.4375    3.0542  -10.7174 O.2       7 UNK        -0.5186 
     49 N          27.3899    1.2737   -9.7723 N.am      8 UNK        -0.4240 
     50 CA         27.4169    0.3700  -10.9218 C.3       8 UNK         0.0235 
     51 CB         26.4608   -0.8075  -10.6672 C.3       8 UNK        -0.2000 
     52 C          28.8322   -0.1339  -11.2479 C.2       8 UNK         0.4941 
     53 O          29.2300   -0.1000  -12.4138 O.2       8 UNK        -0.5273 
     54 N          29.5618   -0.5926  -10.2233 N.am      9 UNK        -0.4262 
     55 CA         30.9553   -1.0238  -10.3308 C.3       9 UNK         0.0264 
     56 CB         31.2441   -2.0512   -9.2271 C.3       9 UNK        -0.1955 
     57 C          31.9069    0.1746  -10.2017 C.2       9 UNK         0.5031 
     58 O          31.5549    1.1867   -9.5915 O.2       9 UNK        -0.5390 
     59 N          33.1258    0.0239  -10.7332 N.am      10 UNK        -0.4204 
     60 CA         34.1941    1.0281  -10.6961 C.3       10 UNK         0.0237 
     61 CB         35.1632    0.7651  -11.8651 C.3       10 UNK        -0.1985 
     62 C          34.9103    1.0816   -9.3291 C.2       10 UNK         0.4970 
     63 O          36.1332    0.9389   -9.2697 O.2       10 UNK        -0.4914 
     64 N          34.1386    1.2802   -8.2543 N.am      11 UNK        -0.4285 
     65 CA         34.6340    1.4167   -6.8737 C.3       11 UNK         0.1007 
     66 C          35.2706    2.8020   -6.5568 C.2       11 UNK         0.5703 
     67 N          35.1399    3.8110   -7.4106 N.am      11 UNK        -0.7361 
     68 O          35.9080    2.9604   -5.5181 O.2       11 UNK        -0.4986 
     69 C69        33.5427    1.0560   -5.8326 C.3       12 UNK        -0.0947 
     70 S70        32.9762   -0.6688   -5.9818 S.3       12 UNK        -0.2240 
     71 C71        32.2899   -0.9361   -4.3116 C.3       12 UNK         0.0194 
     72 H72        28.7728    1.0676   -1.2096 H         1 UNK         0.0906 
     73 H73        27.1386    1.6224   -1.5897 H         1 UNK         0.0906 
     74 H74        27.4717    0.8720   -0.0304 H         1 UNK         0.0906 
     75 H75        27.9802   -1.4652    0.0139 H         1 UNK         0.3140 
     76 H76        27.6393   -3.1153   -2.3186 H         1 UNK         0.1085 
     77 H77        27.5725   -4.0286    0.5973 H         1 UNK         0.0836 
     78 H78        27.8771   -5.0182   -0.8002 H         1 UNK         0.0836 
     79 H79        31.5786   -4.9646   -1.1867 H         1 UNK         0.0731 
     80 H80        30.0339   -5.6883   -1.5474 H         1 UNK         0.0731 
     81 H81        31.9799   -2.5294   -2.1383 H         1 UNK         0.1312 
     82 H82        30.6118   -2.0958   -6.1729 H         1 UNK         0.1406 
     83 H83        29.1862   -5.3427   -3.7791 H         1 UNK         0.1631 
     84 H84        29.3605   -5.2545   -6.5870 H         1 UNK         0.0717 
     85 H85        29.1665   -3.6229   -7.1667 H         1 UNK         0.0717 
     86 H86        27.5876   -2.4534   -4.5390 H         1 UNK         0.0934 
     87 H87        25.9229   -2.8748   -4.6802 H         1 UNK         0.0934 
     88 H88        26.3610   -2.0693   -7.2874 H         1 UNK         0.0739 
     89 H89        24.9819   -1.0021   -5.1215 H         1 UNK         0.3093 
     90 H90        23.9842    1.8115   -5.5840 H         1 UNK         0.0818 
     91 H91        21.8992    1.9312   -6.9711 H         1 UNK         0.0819 
     92 H92        23.3388    2.1792   -7.9402 H         1 UNK         0.0819 
     93 H93        22.5083    0.6317   -7.9976 H         1 UNK         0.0819 
     94 H94        22.1837   -0.5116   -5.7982 H         1 UNK         0.3041 
     95 H95        21.3346   -0.9453   -3.0774 H         1 UNK         0.0784 
     96 H96        21.5455   -2.2906   -5.1873 H         1 UNK         0.0793 
     97 H97        23.1165   -2.9024   -4.6722 H         1 UNK         0.0793 
     98 H98        21.6515   -3.3677   -3.8209 H         1 UNK         0.0793 
     99 H99        23.9526   -1.2510   -2.0795 H         1 UNK         0.3024 
    100 H100       23.3911   -2.0148    0.7139 H         1 UNK         0.1171 
    101 H101       24.0984   -4.3035    1.4605 H         1 UNK         0.0786 
    102 H102       23.5605   -4.9680   -0.0819 H         1 UNK         0.0786 
    103 H103       22.4006   -4.2482    1.0240 H         1 UNK         0.0786 
    104 H104       25.5328   -1.8891    0.1658 H         1 UNK         0.2977 
    105 H105       27.5809    0.1346   -4.7499 H         1 UNK         0.3127 
    106 H106       30.1856    0.4790   -5.8367 H         1 UNK         0.0770 
    107 H107       30.3097    2.3584   -4.1894 H         1 UNK         0.0814 
    108 H108       29.6094    0.9227   -3.4626 H         1 UNK         0.0814 
    109 H109       28.5706    2.2671   -3.9369 H         1 UNK         0.0814 
    110 H110       27.2351    1.7787   -7.0312 H         1 UNK         0.2983 
    111 H111       28.5934    4.0422   -8.4219 H         1 UNK         0.0947 
    112 H112       26.3086    4.6857   -9.1026 H         1 UNK         0.0806 
    113 H113       26.3941    4.5442   -7.3542 H         1 UNK         0.0806 
    114 H114       25.6266    3.2763   -8.3081 H         1 UNK         0.0806 
    115 H115       26.9009    0.9403   -8.9455 H         1 UNK         0.3000 
    116 H116       27.0518    0.9229  -11.7899 H         1 UNK         0.0850 
    117 H117       26.4437   -1.4886  -11.5190 H         1 UNK         0.0810 
    118 H118       25.4398   -0.4603  -10.5070 H         1 UNK         0.0810 
    119 H119       26.7562   -1.3856   -9.7907 H         1 UNK         0.0810 
    120 H120       29.1681   -0.5686   -9.2839 H         1 UNK         0.3040 
    121 H121       31.1123   -1.5001  -11.3011 H         1 UNK         0.0766 
    122 H122       32.2545   -2.4530   -9.3118 H         1 UNK         0.0812 
    123 H123       31.1575   -1.5956   -8.2424 H         1 UNK         0.0812 
    124 H124       30.5523   -2.8923   -9.2718 H         1 UNK         0.0812 
    125 H125       33.3552   -0.8553  -11.1748 H         1 UNK         0.3205 
    126 H126       33.7494    2.0127  -10.8568 H         1 UNK         0.0754 
    127 H127       35.9452    1.5248  -11.9044 H         1 UNK         0.0769 
    128 H128       34.6446    0.7903  -12.8238 H         1 UNK         0.0769 
    129 H129       35.6541   -0.2047  -11.7738 H         1 UNK         0.0769 
    130 H130       33.1373    1.3771   -8.3949 H         1 UNK         0.2981 
    131 H131       35.4435    0.6951   -6.7476 H         1 UNK         0.0541 
    132 H132       34.6133    3.6961   -8.2612 H         1 UNK         0.3459 
    133 H133       35.5631    4.6995   -7.1933 H         1 UNK         0.3459 
    134 H134       32.6796    1.7164   -5.9351 H         1 UNK         0.0612 
    135 H135       33.9220    1.1973   -4.8186 H         1 UNK         0.0612 
    136 H136       33.1244   -0.9904   -3.6107 H         1 UNK         0.0624 
    137 H137       31.6999   -0.0687   -4.0206 H         1 UNK         0.0624 
@<TRIPOS>BOND
     1    1    2 1    
     2    1   72 1    
     3    1   73 1    
     4    1   74 1    
     5    2    3 2    
     6    2    4 am   BACKBONE|DICT|INTERRES
     7    4    5 1    
     8    4   75 1    
     9    5    6 1    
    10    5   35 1    
    11    5   76 1    
    12    6    7 1    
    13    6   77 1    
    14    6   78 1    
    15    7    8 1    
    16    8    9 1    
    17    8   79 1    
    18    8   80 1    
    19    9   10 ar   
    20    9   14 ar   
    21   10   11 ar   
    22   10   81 1    
    23   11   12 ar   
    24   11   71 1    
    25   12   13 ar   
    26   12   82 1    
    27   13   14 ar   
    28   13   15 1    
    29   14   83 1    
    30   15   16 1    
    31   15   84 1    
    32   15   85 1    
    33   16   17 1    
    34   17   18 1    
    35   17   86 1    
    36   17   87 1    
    37   18   19 1    
    38   18   37 1    
    39   18   88 1    
    40   19   20 am   BACKBONE|DICT|INTERRES
    41   19   89 1    
    42   20   21 2    
    43   20   22 1    
    44   22   23 1    
    45   22   24 1    
    46   22   90 1    
    47   23   91 1    
    48   23   92 1    
    49   23   93 1    
    50   24   25 am   BACKBONE|DICT|INTERRES
    51   24   94 1    
    52   25   26 2    
    53   25   27 1    
    54   27   28 1    
    55   27   29 1    
    56   27   95 1    
    57   28   96 1    
    58   28   97 1    
    59   28   98 1    
    60   29   30 am   BACKBONE|DICT|INTERRES
    61   29   99 1    
    62   30   31 2    
    63   30   32 1    
    64   32   33 1    
    65   32   34 1    
    66   32  100 1    
    67   33  101 1    
    68   33  102 1    
    69   33  103 1    
    70   34   35 am   BACKBONE|DICT|INTERRES
    71   34  104 1    
    72   35   36 2    
    73   37   38 2    
    74   37   39 am   BACKBONE|DICT|INTERRES
    75   39   40 1    
    76   39  105 1    
    77   40   41 1    
    78   40   42 1    
    79   40  106 1    
    80   41  107 1    
    81   41  108 1    
    82   41  109 1    
    83   42   43 2    
    84   42   44 am   BACKBONE|DICT|INTERRES
    85   44   45 1    
    86   44  110 1    
    87   45   46 1    
    88   45   47 1    
    89   45  111 1    
    90   46  112 1    
    91   46  113 1    
    92   46  114 1    
    93   47   48 2    
    94   47   49 am   BACKBONE|DICT|INTERRES
    95   49   50 1    
    96   49  115 1    
    97   50   51 1    
    98   50   52 1    
    99   50  116 1    
   100   51  117 1    
   101   51  118 1    
   102   51  119 1    
   103   52   53 2    
   104   52   54 am   BACKBONE|DICT|INTERRES
   105   54   55 1    
   106   54  120 1    
   107   55   56 1    
   108   55   57 1    
   109   55  121 1    
   110   56  122 1    
   111   56  123 1    
   112   56  124 1    
   113   57   58 2    
   114   57   59 am   BACKBONE|DICT|INTERRES
   115   59   60 1    
   116   59  125 1    
   117   60   61 1    
   118   60   62 1    
   119   60  126 1    
   120   61  127 1    
   121   61  128 1    
   122   61  129 1    
   123   62   63 2    
   124   62   64 am   BACKBONE|DICT|INTERRES
   125   64   65 1    
   126   64  130 1    
   127   65   66 1    
   128   65   69 1    
   129   65  131 1    
   130   66   67 am   BACKBONE|DICT|INTERRES
   131   66   68 2    
   132   67  132 1    
   133   67  133 1    
   134   69   70 1    
   135   69  134 1    
   136   69  135 1    
   137   70   71 1    
   138   71  136 1    
   139   71  137 1    
@<TRIPOS>SUBSTRUCTURE
     1 UNK         1 GROUP             0       ****    0 ROOT    
