@<TRIPOS>MOLECULE
3R137
137   139    1
SMALL
USER_CHARGES


@<TRIPOS>ATOM
      1 CA         32.8966    0.0601    0.7787 C.3       0 UNK        -0.2020 
      2 C          31.6802   -0.8538    0.7739 C.2       0 UNK         0.4855 
      3 O          31.0991   -1.0970    1.8321 O.2       0 UNK        -0.5197 
      4 N          31.3030   -1.3559   -0.4092 N.am      1 UNK        -0.4892 
      5 CA         30.1029   -2.1541   -0.6900 C.3       1 UNK         0.0835 
      6 C6         29.9715   -3.4149    0.2138 C.3       12 UNK        -0.0855 
      7 S7         29.0363   -4.7959   -0.5341 S.3       12 UNK        -0.2931 
      8 C8         30.3320   -5.7318   -1.4106 C.3       12 UNK         0.0378 
      9 C9         30.4102   -5.3145   -2.8710 C.ar      12 UNK        -0.0802 
     10 C10        31.3267   -4.3455   -3.2873 C.ar      12 UNK        -0.0944 
     11 C11        31.3626   -3.9253   -4.6207 C.ar      12 UNK        -0.0787 
     12 C12        30.4926   -4.5123   -5.5472 C.ar      12 UNK        -0.0862 
     13 C13        29.5750   -5.4881   -5.1455 C.ar      12 UNK        -0.0733 
     14 C14        29.5467   -5.8909   -3.8067 C.ar      12 UNK        -0.0832 
     15 C15        28.6096   -6.0927   -6.1600 C.3       12 UNK         0.0240 
     16 S16        26.8646   -6.0023   -5.6303 S.3       12 UNK        -0.2522 
     17 C17        26.6179   -4.2047   -5.4339 C.3       12 UNK        -0.0967 
     18 CA         25.7293   -3.5754   -6.5352 C.3       5 UNK         0.0660 
     19 N          25.1168   -2.3303   -6.0605 N.am      5 UNK        -0.4015 
     20 C          24.1194   -1.6789   -6.6799 C.2       4 UNK         0.4946 
     21 O          23.5625   -2.0997   -7.6946 O.2       4 UNK        -0.5353 
     22 CA         23.6573   -0.3294   -6.0920 C.3       4 UNK         0.0277 
     23 CB         22.3036   -0.4906   -5.3808 C.3       4 UNK        -0.1981 
     24 N          24.6079    0.2964   -5.1682 N.am      4 UNK        -0.4209 
     25 C          25.8418    0.7103   -5.4882 C.2       3 UNK         0.4942 
     26 O          26.3211    0.6272   -6.6166 O.2       3 UNK        -0.5208 
     27 CA         26.7183    1.2414   -4.3425 C.3       3 UNK         0.0250 
     28 CB         26.5533    2.7622   -4.1948 C.3       3 UNK        -0.1990 
     29 N          26.4944    0.5926   -3.0431 N.am      3 UNK        -0.4232 
     30 C          26.5766   -0.7267   -2.8184 C.2       2 UNK         0.4993 
     31 O          26.7521   -1.5642   -3.7055 O.2       2 UNK        -0.5286 
     32 CA         26.4472   -1.2024   -1.3636 C.3       2 UNK         0.0209 
     33 CB         25.2574   -2.1634   -1.2033 C.3       2 UNK        -0.1931 
     34 N          27.6795   -1.8865   -0.9758 N.am      2 UNK        -0.4546 
     35 C          28.8424   -1.2637   -0.7536 C.2       1 UNK         0.5154 
     36 O          28.9399   -0.0343   -0.6764 O.2       1 UNK        -0.5181 
     37 C          26.5085   -3.3839   -7.8571 C.2       5 UNK         0.5014 
     38 O          26.5908   -4.3226   -8.6512 O.2       5 UNK        -0.5248 
     39 N          27.0480   -2.1794   -8.0859 N.am      6 UNK        -0.4434 
     40 CA         27.7865   -1.8097   -9.2883 C.3       6 UNK         0.0363 
     41 CB         29.2555   -2.2618   -9.1720 C.3       6 UNK        -0.1936 
     42 C          27.6391   -0.2986   -9.4720 C.2       6 UNK         0.5081 
     43 O          28.5989    0.4434   -9.2613 O.2       6 UNK        -0.5248 
     44 N          26.4226    0.1388   -9.8246 N.am      7 UNK        -0.4718 
     45 CA         26.0030    1.5474   -9.8780 C.3       7 UNK         0.0273 
     46 CB         24.5122    1.6128  -10.2459 C.3       7 UNK        -0.1935 
     47 C          26.8317    2.4543  -10.8075 C.2       7 UNK         0.5018 
     48 O          26.8848    3.6619  -10.5738 O.2       7 UNK        -0.5186 
     49 N          27.4788    1.8639  -11.8220 N.am      8 UNK        -0.4240 
     50 CA         28.4308    2.5405  -12.7067 C.3       8 UNK         0.0235 
     51 CB         28.7108    1.6475  -13.9265 C.3       8 UNK        -0.2000 
     52 C          29.7493    2.9198  -12.0042 C.2       8 UNK         0.4941 
     53 O          30.3734    3.9053  -12.3996 O.2       8 UNK        -0.5273 
     54 N          30.1492    2.1398  -10.9902 N.am      9 UNK        -0.4262 
     55 CA         31.3306    2.3826  -10.1610 C.3       9 UNK         0.0264 
     56 CB         32.0259    1.0432   -9.8595 C.3       9 UNK        -0.1955 
     57 C          30.9590    3.0930   -8.8509 C.2       9 UNK         0.5031 
     58 O          31.7182    3.9529   -8.4027 O.2       9 UNK        -0.5390 
     59 N          29.8142    2.7097   -8.2615 N.am      10 UNK        -0.4204 
     60 CA         29.2810    3.1489   -6.9659 C.3       10 UNK         0.0237 
     61 CB         28.8623    4.6332   -7.0131 C.3       10 UNK        -0.1985 
     62 C          30.2367    2.8173   -5.8017 C.2       10 UNK         0.4970 
     63 O          30.4570    3.6456   -4.9175 O.2       10 UNK        -0.4914 
     64 N          30.7942    1.6019   -5.8416 N.am      11 UNK        -0.4285 
     65 CA         31.8259    1.0720   -4.9356 C.3       11 UNK         0.1007 
     66 C          31.3556    0.7070   -3.4929 C.2       11 UNK         0.5703 
     67 N          30.1659    1.1008   -3.0594 N.am      11 UNK        -0.7361 
     68 O          32.0863    0.0525   -2.7520 O.2       11 UNK        -0.4986 
     69 C69        32.6036   -0.0779   -5.6321 C.3       12 UNK        -0.0947 
     70 S70        31.5462   -1.5172   -6.0146 S.3       12 UNK        -0.2240 
     71 C71        32.3444   -2.8384   -5.0442 C.3       12 UNK         0.0194 
     72 H72        33.6658   -0.3409    1.4382 H         1 UNK         0.0906 
     73 H73        33.3274    0.1706   -0.2165 H         1 UNK         0.0906 
     74 H74        32.6193    1.0503    1.1390 H         1 UNK         0.0906 
     75 H75        31.7719   -1.0060   -1.2434 H         1 UNK         0.3140 
     76 H76        30.2397   -2.4886   -1.7167 H         1 UNK         0.1085 
     77 H77        30.9616   -3.7874    0.4803 H         1 UNK         0.0836 
     78 H78        29.4996   -3.1563    1.1635 H         1 UNK         0.0836 
     79 H79        31.2984   -5.6104   -0.9194 H         1 UNK         0.0731 
     80 H80        30.0962   -6.7953   -1.3487 H         1 UNK         0.0731 
     81 H81        31.9995   -3.9032   -2.5650 H         1 UNK         0.1312 
     82 H82        30.5197   -4.1931   -6.5802 H         1 UNK         0.1406 
     83 H83        28.8321   -6.6378   -3.4875 H         1 UNK         0.1631 
     84 H84        28.7050   -5.6005   -7.1292 H         1 UNK         0.0717 
     85 H85        28.8751   -7.1386   -6.3184 H         1 UNK         0.0717 
     86 H86        26.1401   -4.0801   -4.4607 H         1 UNK         0.0934 
     87 H87        27.5720   -3.6807   -5.3508 H         1 UNK         0.0934 
     88 H88        24.9078   -4.2642   -6.7445 H         1 UNK         0.0739 
     89 H89        25.5405   -1.9196   -5.2328 H         1 UNK         0.3093 
     90 H90        23.5235    0.3534   -6.9338 H         1 UNK         0.0818 
     91 H91        21.9134    0.4703   -5.0447 H         1 UNK         0.0819 
     92 H92        21.5585   -0.9221   -6.0510 H         1 UNK         0.0819 
     93 H93        22.3791   -1.1468   -4.5128 H         1 UNK         0.0819 
     94 H94        24.3109    0.3936   -4.2082 H         1 UNK         0.3041 
     95 H95        27.7514    1.0349   -4.6269 H         1 UNK         0.0784 
     96 H96        26.6740    3.2677   -5.1536 H         1 UNK         0.0793 
     97 H97        25.5654    3.0254   -3.8149 H         1 UNK         0.0793 
     98 H98        27.2971    3.1791   -3.5153 H         1 UNK         0.0793 
     99 H99        26.3550    1.2087   -2.2547 H         1 UNK         0.3024 
    100 H100       26.2939   -0.3436   -0.7060 H         1 UNK         0.1171 
    101 H101       25.1527   -2.4946   -0.1700 H         1 UNK         0.0786 
    102 H102       24.3223   -1.6772   -1.4843 H         1 UNK         0.0786 
    103 H103       25.3647   -3.0506   -1.8293 H         1 UNK         0.0786 
    104 H104       27.6890   -2.8953   -1.0597 H         1 UNK         0.2977 
    105 H105       26.8921   -1.4269   -7.4228 H         1 UNK         0.3127 
    106 H106       27.3404   -2.2922  -10.1606 H         1 UNK         0.0770 
    107 H107       29.7407   -1.8204   -8.3023 H         1 UNK         0.0814 
    108 H108       29.8272   -1.9635  -10.0516 H         1 UNK         0.0814 
    109 H109       29.3343   -3.3453   -9.0848 H         1 UNK         0.0814 
    110 H110       25.6941   -0.5475   -9.9620 H         1 UNK         0.2983 
    111 H111       26.1200    1.9541   -8.8716 H         1 UNK         0.0947 
    112 H112       24.1583    2.6447  -10.2635 H         1 UNK         0.0806 
    113 H113       23.9009    1.0762   -9.5200 H         1 UNK         0.0806 
    114 H114       24.3207    1.1851  -11.2308 H         1 UNK         0.0806 
    115 H115       27.3606    0.8689  -11.9449 H         1 UNK         0.3000 
    116 H116       27.9685    3.4655  -13.0584 H         1 UNK         0.0850 
    117 H117       29.3974    2.1376  -14.6183 H         1 UNK         0.0810 
    118 H118       27.7963    1.4319  -14.4794 H         1 UNK         0.0810 
    119 H119       29.1625    0.6975  -13.6380 H         1 UNK         0.0810 
    120 H120       29.5450    1.3810  -10.6918 H         1 UNK         0.3040 
    121 H121       32.0396    3.0167  -10.6979 H         1 UNK         0.0766 
    122 H122       32.3436    0.5481  -10.7772 H         1 UNK         0.0812 
    123 H123       31.3745    0.3559   -9.3180 H         1 UNK         0.0812 
    124 H124       32.9169    1.1956   -9.2488 H         1 UNK         0.0812 
    125 H125       29.3021    1.9399   -8.6949 H         1 UNK         0.3205 
    126 H126       28.3798    2.5576   -6.7997 H         1 UNK         0.0754 
    127 H127       28.3668    4.9308   -6.0883 H         1 UNK         0.0769 
    128 H128       28.1643    4.8193   -7.8297 H         1 UNK         0.0769 
    129 H129       29.7200    5.2928   -7.1478 H         1 UNK         0.0769 
    130 H130       30.5215    0.9748   -6.5839 H         1 UNK         0.2981 
    131 H131       32.5438    1.8802   -4.7863 H         1 UNK         0.0541 
    132 H132       29.6033    1.7103   -3.6274 H         1 UNK         0.3459 
    133 H133       29.8533    0.8356   -2.1312 H         1 UNK         0.3459 
    134 H134       33.4617   -0.3823   -5.0311 H         1 UNK         0.0612 
    135 H135       33.0256    0.2819   -6.5718 H         1 UNK         0.0612 
    136 H136       32.8116   -2.4004   -4.1609 H         1 UNK         0.0624 
    137 H137       33.1459   -3.2828   -5.6352 H         1 UNK         0.0624 
@<TRIPOS>BOND
     1    1    2 1    
     2    1   72 1    
     3    1   73 1    
     4    1   74 1    
     5    2    3 2    
     6    2    4 am   BACKBONE|DICT|INTERRES
     7    4    5 1    
     8    4   75 1    
     9    5    6 1    
    10    5   35 1    
    11    5   76 1    
    12    6    7 1    
    13    6   77 1    
    14    6   78 1    
    15    7    8 1    
    16    8    9 1    
    17    8   79 1    
    18    8   80 1    
    19    9   10 ar   
    20    9   14 ar   
    21   10   11 ar   
    22   10   81 1    
    23   11   12 ar   
    24   11   71 1    
    25   12   13 ar   
    26   12   82 1    
    27   13   14 ar   
    28   13   15 1    
    29   14   83 1    
    30   15   16 1    
    31   15   84 1    
    32   15   85 1    
    33   16   17 1    
    34   17   18 1    
    35   17   86 1    
    36   17   87 1    
    37   18   19 1    
    38   18   37 1    
    39   18   88 1    
    40   19   20 am   BACKBONE|DICT|INTERRES
    41   19   89 1    
    42   20   21 2    
    43   20   22 1    
    44   22   23 1    
    45   22   24 1    
    46   22   90 1    
    47   23   91 1    
    48   23   92 1    
    49   23   93 1    
    50   24   25 am   BACKBONE|DICT|INTERRES
    51   24   94 1    
    52   25   26 2    
    53   25   27 1    
    54   27   28 1    
    55   27   29 1    
    56   27   95 1    
    57   28   96 1    
    58   28   97 1    
    59   28   98 1    
    60   29   30 am   BACKBONE|DICT|INTERRES
    61   29   99 1    
    62   30   31 2    
    63   30   32 1    
    64   32   33 1    
    65   32   34 1    
    66   32  100 1    
    67   33  101 1    
    68   33  102 1    
    69   33  103 1    
    70   34   35 am   BACKBONE|DICT|INTERRES
    71   34  104 1    
    72   35   36 2    
    73   37   38 2    
    74   37   39 am   BACKBONE|DICT|INTERRES
    75   39   40 1    
    76   39  105 1    
    77   40   41 1    
    78   40   42 1    
    79   40  106 1    
    80   41  107 1    
    81   41  108 1    
    82   41  109 1    
    83   42   43 2    
    84   42   44 am   BACKBONE|DICT|INTERRES
    85   44   45 1    
    86   44  110 1    
    87   45   46 1    
    88   45   47 1    
    89   45  111 1    
    90   46  112 1    
    91   46  113 1    
    92   46  114 1    
    93   47   48 2    
    94   47   49 am   BACKBONE|DICT|INTERRES
    95   49   50 1    
    96   49  115 1    
    97   50   51 1    
    98   50   52 1    
    99   50  116 1    
   100   51  117 1    
   101   51  118 1    
   102   51  119 1    
   103   52   53 2    
   104   52   54 am   BACKBONE|DICT|INTERRES
   105   54   55 1    
   106   54  120 1    
   107   55   56 1    
   108   55   57 1    
   109   55  121 1    
   110   56  122 1    
   111   56  123 1    
   112   56  124 1    
   113   57   58 2    
   114   57   59 am   BACKBONE|DICT|INTERRES
   115   59   60 1    
   116   59  125 1    
   117   60   61 1    
   118   60   62 1    
   119   60  126 1    
   120   61  127 1    
   121   61  128 1    
   122   61  129 1    
   123   62   63 2    
   124   62   64 am   BACKBONE|DICT|INTERRES
   125   64   65 1    
   126   64  130 1    
   127   65   66 1    
   128   65   69 1    
   129   65  131 1    
   130   66   67 am   BACKBONE|DICT|INTERRES
   131   66   68 2    
   132   67  132 1    
   133   67  133 1    
   134   69   70 1    
   135   69  134 1    
   136   69  135 1    
   137   70   71 1    
   138   71  136 1    
   139   71  137 1    
@<TRIPOS>SUBSTRUCTURE
     1 UNK         1 GROUP             0       ****    0 ROOT    
