@<TRIPOS>MOLECULE
3R137
137   139    1
SMALL
USER_CHARGES


@<TRIPOS>ATOM
      1 CA         28.1988   -6.5778   -6.2846 C.3       0 UNK        -0.2020 
      2 C          27.6287   -6.2679   -4.9087 C.2       0 UNK         0.4855 
      3 O          26.6715   -6.9157   -4.4821 O.2       0 UNK        -0.5197 
      4 N          28.2187   -5.2928   -4.2089 N.am      1 UNK        -0.4892 
      5 CA         27.7768   -4.8158   -2.8934 C.3       1 UNK         0.0835 
      6 C6         28.9206   -4.0724   -2.1606 C.3       12 UNK        -0.0855 
      7 S7         30.2689   -5.2144   -1.6982 S.3       12 UNK        -0.2931 
      8 C8         31.2625   -4.1742   -0.5817 C.3       12 UNK         0.0378 
      9 C9         31.9241   -3.0355   -1.3403 C.ar      12 UNK        -0.0802 
     10 C10        33.1201   -3.2496   -2.0278 C.ar      12 UNK        -0.0944 
     11 C11        33.7077   -2.2192   -2.7670 C.ar      12 UNK        -0.0787 
     12 C12        33.0873   -0.9661   -2.8144 C.ar      12 UNK        -0.0862 
     13 C13        31.8754   -0.7450   -2.1505 C.ar      12 UNK        -0.0733 
     14 C14        31.3203   -1.7776   -1.3861 C.ar      12 UNK        -0.0832 
     15 C15        31.1605    0.5968   -2.2857 C.3       12 UNK         0.0240 
     16 S16        29.3685    0.3890   -2.5646 S.3       12 UNK        -0.2522 
     17 C17        28.9129    1.9334   -3.4185 C.3       12 UNK        -0.0967 
     18 CA         28.7672    1.7242   -4.9458 C.3       5 UNK         0.0660 
     19 N          27.8837    0.5989   -5.2699 N.am      5 UNK        -0.4015 
     20 C          27.6187    0.1333   -6.4969 C.2       4 UNK         0.4946 
     21 O          28.1440    0.5680   -7.5220 O.2       4 UNK        -0.5353 
     22 CA         26.5361   -0.9504   -6.6182 C.3       4 UNK         0.0277 
     23 CB         27.1885   -2.3338   -6.7431 C.3       4 UNK        -0.1981 
     24 N          25.5398   -0.9487   -5.5347 N.am      4 UNK        -0.4209 
     25 C          24.7557    0.0978   -5.2168 C.2       3 UNK         0.4942 
     26 O          24.8615    1.2043   -5.7503 O.2       3 UNK        -0.5208 
     27 CA         23.6706   -0.0831   -4.1414 C.3       3 UNK         0.0250 
     28 CB         22.2763   -0.0412   -4.7884 C.3       3 UNK        -0.1990 
     29 N          23.7929   -1.3113   -3.3559 N.am      3 UNK        -0.4232 
     30 C          24.6916   -1.5211   -2.3853 C.2       2 UNK         0.4993 
     31 O          25.5407   -0.6939   -2.0506 O.2       2 UNK        -0.5286 
     32 CA         24.6490   -2.8888   -1.6704 C.3       2 UNK         0.0209 
     33 CB         23.4373   -3.7693   -2.0573 C.3       2 UNK        -0.1931 
     34 N          25.8924   -3.6522   -1.8416 N.am      2 UNK        -0.4546 
     35 C          26.5025   -3.9466   -3.0005 C.2       1 UNK         0.5154 
     36 O          26.0906   -3.5644   -4.0998 O.2       1 UNK        -0.5181 
     37 C          28.3450    3.0383   -5.6377 C.2       5 UNK         0.5014 
     38 O          29.2132    3.8531   -5.9513 O.2       5 UNK        -0.5248 
     39 N          27.0377    3.2060   -5.8840 N.am      6 UNK        -0.4434 
     40 CA         26.4673    4.3136   -6.6459 C.3       6 UNK         0.0363 
     41 CB         25.2874    4.9150   -5.8641 C.3       6 UNK        -0.1936 
     42 C          26.0083    3.8402   -8.0322 C.2       6 UNK         0.5081 
     43 O          26.3255    4.4932   -9.0253 O.2       6 UNK        -0.5248 
     44 N          25.2702    2.7212   -8.0824 N.am      7 UNK        -0.4718 
     45 CA         24.5911    2.2237   -9.2835 C.3       7 UNK         0.0273 
     46 CB         23.5799    1.1365   -8.8844 C.3       7 UNK        -0.1935 
     47 C          25.5327    1.7104  -10.3854 C.2       7 UNK         0.5018 
     48 O          25.2098    1.8669  -11.5636 O.2       7 UNK        -0.5186 
     49 N          26.6675    1.1178   -9.9935 N.am      8 UNK        -0.4240 
     50 CA         27.7069    0.6165  -10.8987 C.3       8 UNK         0.0235 
     51 CB         27.9179   -0.8845  -10.6268 C.3       8 UNK        -0.2000 
     52 C          29.0272    1.3917  -10.7384 C.2       8 UNK         0.4941 
     53 O          30.0062    1.0377  -11.3954 O.2       8 UNK        -0.5273 
     54 N          29.0386    2.4123   -9.8651 N.am      9 UNK        -0.4262 
     55 CA         30.1933    3.2065   -9.4288 C.3       9 UNK         0.0264 
     56 CB         30.7480    4.0592  -10.5904 C.3       9 UNK        -0.1955 
     57 C          31.2791    2.3680   -8.7178 C.2       9 UNK         0.5031 
     58 O          32.4621    2.6979   -8.8278 O.2       9 UNK        -0.5390 
     59 N          30.8420    1.3274   -7.9877 N.am      10 UNK        -0.4204 
     60 CA         31.6080    0.3330   -7.2222 C.3       10 UNK         0.0237 
     61 CB         32.5714    1.0147   -6.2249 C.3       10 UNK        -0.1985 
     62 C          32.3546   -0.6873   -8.1103 C.2       10 UNK         0.4970 
     63 O          32.6934   -0.3772   -9.2515 O.2       10 UNK        -0.4914 
     64 N          32.6546   -1.8993   -7.6222 N.am      11 UNK        -0.4285 
     65 CA         32.2444   -2.5151   -6.3436 C.3       11 UNK         0.1007 
     66 C          30.9409   -3.3582   -6.4632 C.2       11 UNK         0.5703 
     67 N          30.3799   -3.5460   -7.6524 N.am      11 UNK        -0.7361 
     68 O          30.4131   -3.8310   -5.4603 O.2       11 UNK        -0.4986 
     69 C69        33.4071   -3.3462   -5.7388 C.3       12 UNK        -0.0947 
     70 S70        34.8379   -2.2836   -5.3292 S.3       12 UNK        -0.2240 
     71 C71        35.0049   -2.4770   -3.5232 C.3       12 UNK         0.0194 
     72 H72        29.1922   -6.1497   -6.4155 H         1 UNK         0.0906 
     73 H73        28.2784   -7.6553   -6.4266 H         1 UNK         0.0906 
     74 H74        27.5456   -6.1778   -7.0595 H         1 UNK         0.0906 
     75 H75        29.0015   -4.7846   -4.6154 H         1 UNK         0.3140 
     76 H76        27.5012   -5.6891   -2.2974 H         1 UNK         0.1085 
     77 H77        29.3220   -3.2757   -2.7906 H         1 UNK         0.0836 
     78 H78        28.5640   -3.5932   -1.2472 H         1 UNK         0.0836 
     79 H79        32.0256   -4.7922   -0.1062 H         1 UNK         0.0731 
     80 H80        30.6339   -3.7916    0.2240 H         1 UNK         0.0731 
     81 H81        33.5821   -4.2272   -2.0004 H         1 UNK         0.1312 
     82 H82        33.5419   -0.1718   -3.3890 H         1 UNK         0.1406 
     83 H83        30.3891   -1.6161   -0.8607 H         1 UNK         0.1631 
     84 H84        31.5843    1.1626   -3.1166 H         1 UNK         0.0717 
     85 H85        31.3213    1.1886   -1.3839 H         1 UNK         0.0717 
     86 H86        27.9732    2.2856   -2.9880 H         1 UNK         0.0934 
     87 H87        29.6544    2.7047   -3.2000 H         1 UNK         0.0934 
     88 H88        29.7507    1.4684   -5.3359 H         1 UNK         0.0739 
     89 H89        27.4162    0.1677   -4.4847 H         1 UNK         0.3093 
     90 H90        25.9958   -0.7561   -7.5456 H         1 UNK         0.0818 
     91 H91        27.8348   -2.3773   -7.6194 H         1 UNK         0.0819 
     92 H92        27.8024   -2.5713   -5.8733 H         1 UNK         0.0819 
     93 H93        26.4426   -3.1209   -6.8538 H         1 UNK         0.0819 
     94 H94        25.4381   -1.8182   -5.0190 H         1 UNK         0.3041 
     95 H95        23.7538    0.7667   -3.4604 H         1 UNK         0.0784 
     96 H96        22.1329    0.8827   -5.3510 H         1 UNK         0.0793 
     97 H97        22.1271   -0.8700   -5.4818 H         1 UNK         0.0793 
     98 H98        21.4877   -0.0842   -4.0368 H         1 UNK         0.0793 
     99 H99        23.1527   -2.0592   -3.5814 H         1 UNK         0.3024 
    100 H100       24.5642   -2.6619   -0.6062 H         1 UNK         0.1171 
    101 H101       23.4136   -4.6802   -1.4589 H         1 UNK         0.0786 
    102 H102       22.4940   -3.2516   -1.8771 H         1 UNK         0.0786 
    103 H103       23.4629   -4.0709   -3.1053 H         1 UNK         0.0786 
    104 H104       26.3162   -3.9787   -0.9842 H         1 UNK         0.2977 
    105 H105       26.3933    2.4645   -5.6263 H         1 UNK         0.3127 
    106 H106       27.2094    5.1015   -6.7925 H         1 UNK         0.0770 
    107 H107       24.5079    4.1768   -5.6698 H         1 UNK         0.0814 
    108 H108       24.8301    5.7361   -6.4179 H         1 UNK         0.0814 
    109 H109       25.6144    5.3146   -4.9042 H         1 UNK         0.0814 
    110 H110       25.0635    2.2283   -7.2151 H         1 UNK         0.2983 
    111 H111       24.0308    3.0594   -9.7090 H         1 UNK         0.0947 
    112 H112       23.0211    0.7852   -9.7530 H         1 UNK         0.0806 
    113 H113       22.8538    1.5152   -8.1647 H         1 UNK         0.0806 
    114 H114       24.0680    0.2699   -8.4397 H         1 UNK         0.0806 
    115 H115       26.8695    1.0302   -9.0029 H         1 UNK         0.3000 
    116 H116       27.3996    0.7331  -11.9399 H         1 UNK         0.0850 
    117 H117       28.6176   -1.3166  -11.3433 H         1 UNK         0.0810 
    118 H118       26.9839   -1.4399  -10.7123 H         1 UNK         0.0810 
    119 H119       28.3252   -1.0617   -9.6315 H         1 UNK         0.0810 
    120 H120       28.1656    2.6345   -9.4080 H         1 UNK         0.3040 
    121 H121       29.8113    3.8962   -8.6747 H         1 UNK         0.0766 
    122 H122       31.2159    3.4422  -11.3579 H         1 UNK         0.0812 
    123 H123       31.5031    4.7609  -10.2340 H         1 UNK         0.0812 
    124 H124       29.9605    4.6459  -11.0634 H         1 UNK         0.0812 
    125 H125       29.8386    1.1508   -7.9985 H         1 UNK         0.3205 
    126 H126       30.8456   -0.2052   -6.6602 H         1 UNK         0.0754 
    127 H127       33.3943    1.5165   -6.7340 H         1 UNK         0.0769 
    128 H128       33.0248    0.2884   -5.5542 H         1 UNK         0.0769 
    129 H129       32.0621    1.7552   -5.6093 H         1 UNK         0.0769 
    130 H130       33.1777   -2.5180   -8.2232 H         1 UNK         0.2981 
    131 H131       32.0093   -1.7446   -5.6115 H         1 UNK         0.0541 
    132 H132       30.8014   -3.1670   -8.4848 H         1 UNK         0.3459 
    133 H133       29.5385   -4.0931   -7.7204 H         1 UNK         0.3459 
    134 H134       33.7370   -4.1126   -6.4421 H         1 UNK         0.0612 
    135 H135       33.0832   -3.8812   -4.8450 H         1 UNK         0.0612 
    136 H136       35.7687   -1.7855   -3.1655 H         1 UNK         0.0624 
    137 H137       35.3803   -3.4807   -3.3177 H         1 UNK         0.0624 
@<TRIPOS>BOND
     1    1    2 1    
     2    1   72 1    
     3    1   73 1    
     4    1   74 1    
     5    2    3 2    
     6    2    4 am   BACKBONE|DICT|INTERRES
     7    4    5 1    
     8    4   75 1    
     9    5    6 1    
    10    5   35 1    
    11    5   76 1    
    12    6    7 1    
    13    6   77 1    
    14    6   78 1    
    15    7    8 1    
    16    8    9 1    
    17    8   79 1    
    18    8   80 1    
    19    9   10 ar   
    20    9   14 ar   
    21   10   11 ar   
    22   10   81 1    
    23   11   12 ar   
    24   11   71 1    
    25   12   13 ar   
    26   12   82 1    
    27   13   14 ar   
    28   13   15 1    
    29   14   83 1    
    30   15   16 1    
    31   15   84 1    
    32   15   85 1    
    33   16   17 1    
    34   17   18 1    
    35   17   86 1    
    36   17   87 1    
    37   18   19 1    
    38   18   37 1    
    39   18   88 1    
    40   19   20 am   BACKBONE|DICT|INTERRES
    41   19   89 1    
    42   20   21 2    
    43   20   22 1    
    44   22   23 1    
    45   22   24 1    
    46   22   90 1    
    47   23   91 1    
    48   23   92 1    
    49   23   93 1    
    50   24   25 am   BACKBONE|DICT|INTERRES
    51   24   94 1    
    52   25   26 2    
    53   25   27 1    
    54   27   28 1    
    55   27   29 1    
    56   27   95 1    
    57   28   96 1    
    58   28   97 1    
    59   28   98 1    
    60   29   30 am   BACKBONE|DICT|INTERRES
    61   29   99 1    
    62   30   31 2    
    63   30   32 1    
    64   32   33 1    
    65   32   34 1    
    66   32  100 1    
    67   33  101 1    
    68   33  102 1    
    69   33  103 1    
    70   34   35 am   BACKBONE|DICT|INTERRES
    71   34  104 1    
    72   35   36 2    
    73   37   38 2    
    74   37   39 am   BACKBONE|DICT|INTERRES
    75   39   40 1    
    76   39  105 1    
    77   40   41 1    
    78   40   42 1    
    79   40  106 1    
    80   41  107 1    
    81   41  108 1    
    82   41  109 1    
    83   42   43 2    
    84   42   44 am   BACKBONE|DICT|INTERRES
    85   44   45 1    
    86   44  110 1    
    87   45   46 1    
    88   45   47 1    
    89   45  111 1    
    90   46  112 1    
    91   46  113 1    
    92   46  114 1    
    93   47   48 2    
    94   47   49 am   BACKBONE|DICT|INTERRES
    95   49   50 1    
    96   49  115 1    
    97   50   51 1    
    98   50   52 1    
    99   50  116 1    
   100   51  117 1    
   101   51  118 1    
   102   51  119 1    
   103   52   53 2    
   104   52   54 am   BACKBONE|DICT|INTERRES
   105   54   55 1    
   106   54  120 1    
   107   55   56 1    
   108   55   57 1    
   109   55  121 1    
   110   56  122 1    
   111   56  123 1    
   112   56  124 1    
   113   57   58 2    
   114   57   59 am   BACKBONE|DICT|INTERRES
   115   59   60 1    
   116   59  125 1    
   117   60   61 1    
   118   60   62 1    
   119   60  126 1    
   120   61  127 1    
   121   61  128 1    
   122   61  129 1    
   123   62   63 2    
   124   62   64 am   BACKBONE|DICT|INTERRES
   125   64   65 1    
   126   64  130 1    
   127   65   66 1    
   128   65   69 1    
   129   65  131 1    
   130   66   67 am   BACKBONE|DICT|INTERRES
   131   66   68 2    
   132   67  132 1    
   133   67  133 1    
   134   69   70 1    
   135   69  134 1    
   136   69  135 1    
   137   70   71 1    
   138   71  136 1    
   139   71  137 1    
@<TRIPOS>SUBSTRUCTURE
     1 UNK         1 GROUP             0       ****    0 ROOT    
