@<TRIPOS>MOLECULE
3R137
137   139    1
SMALL
USER_CHARGES


@<TRIPOS>ATOM
      1 CA         30.6027    1.3079   -0.5525 C.3       0 UNK        -0.2020 
      2 C          31.1470    0.7387   -1.8605 C.2       0 UNK         0.4855 
      3 O          32.1064    1.2944   -2.3910 O.2       0 UNK        -0.5197 
      4 N          30.6108   -0.3558   -2.4204 N.am      1 UNK        -0.4892 
      5 CA         29.4461   -1.1629   -2.0149 C.3       1 UNK         0.0835 
      6 C6         29.5065   -1.7520   -0.5713 C.3       12 UNK        -0.0855 
      7 S7         31.0989   -2.5386   -0.1424 S.3       12 UNK        -0.2931 
      8 C8         30.8149   -4.2718   -0.6343 C.3       12 UNK         0.0378 
      9 C9         30.5872   -4.4048   -2.1335 C.ar      12 UNK        -0.0802 
     10 C10        31.5804   -3.9986   -3.0302 C.ar      12 UNK        -0.0944 
     11 C11        31.3639   -4.0619   -4.4084 C.ar      12 UNK        -0.0787 
     12 C12        30.1497   -4.5588   -4.8909 C.ar      12 UNK        -0.0862 
     13 C13        29.1579   -4.9941   -4.0050 C.ar      12 UNK        -0.0733 
     14 C14        29.3811   -4.9137   -2.6269 C.ar      12 UNK        -0.0832 
     15 C15        27.8606   -5.5803   -4.5410 C.3       12 UNK         0.0240 
     16 S16        26.4359   -4.4838   -4.2493 S.3       12 UNK        -0.2522 
     17 C17        25.3061   -5.0595   -5.5716 C.3       12 UNK        -0.0967 
     18 CA         25.1514   -4.1239   -6.8059 C.3       5 UNK         0.0660 
     19 N          24.2568   -2.9913   -6.5396 N.am      5 UNK        -0.4015 
     20 C          23.2749   -2.6023   -7.3676 C.2       4 UNK         0.4946 
     21 O          23.0282   -3.1520   -8.4422 O.2       4 UNK        -0.5353 
     22 CA         22.3944   -1.4148   -6.9376 C.3       4 UNK         0.0277 
     23 CB         21.1543   -1.9175   -6.1803 C.3       4 UNK        -0.1981 
     24 N          23.0895   -0.4241   -6.1173 N.am      4 UNK        -0.4209 
     25 C          24.0390    0.4070   -6.5659 C.2       3 UNK         0.4942 
     26 O          24.4322    0.4477   -7.7323 O.2       3 UNK        -0.5208 
     27 CA         24.6886    1.3395   -5.5292 C.3       3 UNK         0.0250 
     28 CB         23.9140    2.6648   -5.4453 C.3       3 UNK        -0.1990 
     29 N          24.8372    0.7778   -4.1810 N.am      3 UNK        -0.4232 
     30 C          25.4277   -0.3881   -3.8865 C.2       2 UNK         0.4993 
     31 O          25.7843   -1.2110   -4.7317 O.2       2 UNK        -0.5286 
     32 CA         25.6373   -0.7061   -2.4003 C.3       2 UNK         0.0209 
     33 CB         24.6206   -1.7571   -1.9268 C.3       2 UNK        -0.1931 
     34 N          26.9956   -1.1980   -2.1582 N.am      2 UNK        -0.4546 
     35 C          28.1024   -0.4522   -2.2902 C.2       1 UNK         0.5154 
     36 O          28.0757    0.7407   -2.6038 O.2       1 UNK        -0.5181 
     37 C          26.4968   -3.6403   -7.3832 C.2       5 UNK         0.5014 
     38 O          27.0543   -4.2997   -8.2616 O.2       5 UNK        -0.5248 
     39 N          26.9920   -2.5032   -6.8785 N.am      6 UNK        -0.4434 
     40 CA         28.3064   -1.9408   -7.1770 C.3       6 UNK         0.0363 
     41 CB         28.8493   -1.2998   -5.8907 C.3       6 UNK        -0.1936 
     42 C          28.2919   -0.9287   -8.3341 C.2       6 UNK         0.5081 
     43 O          29.3079   -0.2675   -8.5454 O.2       6 UNK        -0.5248 
     44 N          27.1579   -0.7971   -9.0401 N.am      7 UNK        -0.4718 
     45 CA         26.9272    0.0783  -10.1988 C.3       7 UNK         0.0273 
     46 CB         27.7309   -0.4228  -11.4179 C.3       7 UNK        -0.1935 
     47 C          27.2002    1.5586   -9.8727 C.2       7 UNK         0.5018 
     48 O          28.0745    2.1782  -10.4802 O.2       7 UNK        -0.5186 
     49 N          26.4647    2.0728   -8.8767 N.am      8 UNK        -0.4240 
     50 CA         26.6121    3.4029   -8.2687 C.3       8 UNK         0.0235 
     51 CB         26.2984    4.5242   -9.2831 C.3       8 UNK        -0.2000 
     52 C          27.9678    3.5870   -7.5545 C.2       8 UNK         0.4941 
     53 O          28.5387    4.6781   -7.5931 O.2       8 UNK        -0.5273 
     54 N          28.4389    2.5111   -6.9030 N.am      9 UNK        -0.4262 
     55 CA         29.6927    2.4026   -6.1457 C.3       9 UNK         0.0264 
     56 CB         29.6644    3.2997   -4.8902 C.3       9 UNK        -0.1955 
     57 C          30.9423    2.6142   -7.0217 C.2       9 UNK         0.5031 
     58 O          31.8705    3.3177   -6.6170 O.2       9 UNK        -0.5390 
     59 N          30.9611    1.9760   -8.2013 N.am      10 UNK        -0.4204 
     60 CA         32.0644    2.0273   -9.1664 C.3       10 UNK         0.0237 
     61 CB         31.6304    1.3517  -10.4771 C.3       10 UNK        -0.1985 
     62 C          33.3647    1.3958   -8.6398 C.2       10 UNK         0.4970 
     63 O          34.4470    1.8273   -9.0388 O.2       10 UNK        -0.4914 
     64 N          33.2359    0.4093   -7.7435 N.am      11 UNK        -0.4285 
     65 CA         34.3453   -0.1953   -6.9942 C.3       11 UNK         0.1007 
     66 C          34.8982    0.6760   -5.8252 C.2       11 UNK         0.5703 
     67 N          34.3232    1.8324   -5.5120 N.am      11 UNK        -0.7361 
     68 O          35.8891    0.3027   -5.2014 O.2       11 UNK        -0.4986 
     69 C69        34.0140   -1.6477   -6.5601 C.3       12 UNK        -0.0947 
     70 S70        32.5613   -1.7998   -5.4664 S.3       12 UNK        -0.2240 
     71 C71        32.4545   -3.6125   -5.3679 C.3       12 UNK         0.0194 
     72 H72        30.9891    0.7404    0.2934 H         1 UNK         0.0906 
     73 H73        29.5159    1.3027   -0.5135 H         1 UNK         0.0906 
     74 H74        30.9227    2.3425   -0.4313 H         1 UNK         0.0906 
     75 H75        31.0394   -0.6759   -3.2774 H         1 UNK         0.3140 
     76 H76        29.4558   -2.0032   -2.7080 H         1 UNK         0.1085 
     77 H77        29.3036   -0.9837    0.1748 H         1 UNK         0.0836 
     78 H78        28.7193   -2.4948   -0.4317 H         1 UNK         0.0836 
     79 H79        29.9724   -4.6734   -0.0691 H         1 UNK         0.0731 
     80 H80        31.6855   -4.8663   -0.3538 H         1 UNK         0.0731 
     81 H81        32.5153   -3.6068   -2.6527 H         1 UNK         0.1312 
     82 H82        29.9809   -4.6161   -5.9576 H         1 UNK         0.1406 
     83 H83        28.6101   -5.2426   -1.9430 H         1 UNK         0.1631 
     84 H84        27.6715   -6.5464   -4.0709 H         1 UNK         0.0717 
     85 H85        27.9590   -5.7741   -5.6104 H         1 UNK         0.0717 
     86 H86        25.6322   -6.0449   -5.9087 H         1 UNK         0.0934 
     87 H87        24.3274   -5.2336   -5.1216 H         1 UNK         0.0934 
     88 H88        24.7029   -4.7430   -7.5860 H         1 UNK         0.0739 
     89 H89        24.4522   -2.4509   -5.7040 H         1 UNK         0.3093 
     90 H90        22.0561   -0.9152   -7.8483 H         1 UNK         0.0818 
     91 H91        20.5970   -2.6389   -6.7799 H         1 UNK         0.0819 
     92 H92        21.4226   -2.4103   -5.2449 H         1 UNK         0.0819 
     93 H93        20.4724   -1.0995   -5.9468 H         1 UNK         0.0819 
     94 H94        22.8402   -0.3805   -5.1400 H         1 UNK         0.3041 
     95 H95        25.6967    1.5543   -5.8866 H         1 UNK         0.0784 
     96 H96        23.7436    3.0898   -6.4355 H         1 UNK         0.0793 
     97 H97        22.9358    2.5306   -4.9819 H         1 UNK         0.0793 
     98 H98        24.4610    3.4085   -4.8652 H         1 UNK         0.0793 
     99 H99        24.5584    1.3798   -3.4193 H         1 UNK         0.3024 
    100 H100       25.4982    0.2054   -1.8144 H         1 UNK         0.1171 
    101 H101       23.5983   -1.4026   -2.0653 H         1 UNK         0.0786 
    102 H102       24.7175   -2.6924   -2.4793 H         1 UNK         0.0786 
    103 H103       24.7437   -1.9799   -0.8668 H         1 UNK         0.0786 
    104 H104       27.0829   -2.1843   -1.9620 H         1 UNK         0.2977 
    105 H105       26.4831   -2.0450   -6.1215 H         1 UNK         0.3127 
    106 H106       28.9872   -2.7442   -7.4652 H         1 UNK         0.0770 
    107 H107       28.2391   -0.4555   -5.5701 H         1 UNK         0.0814 
    108 H108       29.8673   -0.9412   -6.0323 H         1 UNK         0.0814 
    109 H109       28.8716   -2.0197   -5.0738 H         1 UNK         0.0814 
    110 H110       26.3654   -1.3497   -8.7436 H         1 UNK         0.2983 
    111 H111       25.8667    0.0035  -10.4459 H         1 UNK         0.0947 
    112 H112       28.8066   -0.3627  -11.2482 H         1 UNK         0.0806 
    113 H113       27.5087    0.1744  -12.3031 H         1 UNK         0.0806 
    114 H114       27.4868   -1.4581  -11.6553 H         1 UNK         0.0806 
    115 H115       25.7492    1.4714   -8.4683 H         1 UNK         0.3000 
    116 H116       25.8573    3.4650   -7.4860 H         1 UNK         0.0850 
    117 H117       26.2597    5.4962   -8.7898 H         1 UNK         0.0810 
    118 H118       25.3324    4.3670   -9.7626 H         1 UNK         0.0810 
    119 H119       27.0556    4.5900  -10.0650 H         1 UNK         0.0810 
    120 H120       27.9080    1.6571   -6.9857 H         1 UNK         0.3040 
    121 H121       29.7543    1.3755   -5.7914 H         1 UNK         0.0766 
    122 H122       29.6497    4.3593   -5.1461 H         1 UNK         0.0812 
    123 H123       30.5451    3.1268   -4.2698 H         1 UNK         0.0812 
    124 H124       28.7917    3.0875   -4.2722 H         1 UNK         0.0812 
    125 H125       30.1934    1.3453   -8.4314 H         1 UNK         0.3205 
    126 H126       32.2718    3.0788   -9.3751 H         1 UNK         0.0754 
    127 H127       32.4247    1.3964  -11.2234 H         1 UNK         0.0769 
    128 H128       30.7566    1.8434  -10.9050 H         1 UNK         0.0769 
    129 H129       31.3808    0.3006  -10.3261 H         1 UNK         0.0769 
    130 H130       32.3094    0.1135   -7.4746 H         1 UNK         0.2981 
    131 H131       35.1830   -0.2777   -7.6893 H         1 UNK         0.0541 
    132 H132       34.6996    2.3709   -4.7488 H         1 UNK         0.3459 
    133 H133       33.5143    2.1775   -6.0140 H         1 UNK         0.3459 
    134 H134       34.8727   -2.1038   -6.0640 H         1 UNK         0.0612 
    135 H135       33.8317   -2.2536   -7.4491 H         1 UNK         0.0612 
    136 H136       33.4142   -4.0132   -5.0379 H         1 UNK         0.0624 
    137 H137       32.2767   -4.0154   -6.3663 H         1 UNK         0.0624 
@<TRIPOS>BOND
     1    1    2 1    
     2    1   72 1    
     3    1   73 1    
     4    1   74 1    
     5    2    3 2    
     6    2    4 am   BACKBONE|DICT|INTERRES
     7    4    5 1    
     8    4   75 1    
     9    5    6 1    
    10    5   35 1    
    11    5   76 1    
    12    6    7 1    
    13    6   77 1    
    14    6   78 1    
    15    7    8 1    
    16    8    9 1    
    17    8   79 1    
    18    8   80 1    
    19    9   10 ar   
    20    9   14 ar   
    21   10   11 ar   
    22   10   81 1    
    23   11   12 ar   
    24   11   71 1    
    25   12   13 ar   
    26   12   82 1    
    27   13   14 ar   
    28   13   15 1    
    29   14   83 1    
    30   15   16 1    
    31   15   84 1    
    32   15   85 1    
    33   16   17 1    
    34   17   18 1    
    35   17   86 1    
    36   17   87 1    
    37   18   19 1    
    38   18   37 1    
    39   18   88 1    
    40   19   20 am   BACKBONE|DICT|INTERRES
    41   19   89 1    
    42   20   21 2    
    43   20   22 1    
    44   22   23 1    
    45   22   24 1    
    46   22   90 1    
    47   23   91 1    
    48   23   92 1    
    49   23   93 1    
    50   24   25 am   BACKBONE|DICT|INTERRES
    51   24   94 1    
    52   25   26 2    
    53   25   27 1    
    54   27   28 1    
    55   27   29 1    
    56   27   95 1    
    57   28   96 1    
    58   28   97 1    
    59   28   98 1    
    60   29   30 am   BACKBONE|DICT|INTERRES
    61   29   99 1    
    62   30   31 2    
    63   30   32 1    
    64   32   33 1    
    65   32   34 1    
    66   32  100 1    
    67   33  101 1    
    68   33  102 1    
    69   33  103 1    
    70   34   35 am   BACKBONE|DICT|INTERRES
    71   34  104 1    
    72   35   36 2    
    73   37   38 2    
    74   37   39 am   BACKBONE|DICT|INTERRES
    75   39   40 1    
    76   39  105 1    
    77   40   41 1    
    78   40   42 1    
    79   40  106 1    
    80   41  107 1    
    81   41  108 1    
    82   41  109 1    
    83   42   43 2    
    84   42   44 am   BACKBONE|DICT|INTERRES
    85   44   45 1    
    86   44  110 1    
    87   45   46 1    
    88   45   47 1    
    89   45  111 1    
    90   46  112 1    
    91   46  113 1    
    92   46  114 1    
    93   47   48 2    
    94   47   49 am   BACKBONE|DICT|INTERRES
    95   49   50 1    
    96   49  115 1    
    97   50   51 1    
    98   50   52 1    
    99   50  116 1    
   100   51  117 1    
   101   51  118 1    
   102   51  119 1    
   103   52   53 2    
   104   52   54 am   BACKBONE|DICT|INTERRES
   105   54   55 1    
   106   54  120 1    
   107   55   56 1    
   108   55   57 1    
   109   55  121 1    
   110   56  122 1    
   111   56  123 1    
   112   56  124 1    
   113   57   58 2    
   114   57   59 am   BACKBONE|DICT|INTERRES
   115   59   60 1    
   116   59  125 1    
   117   60   61 1    
   118   60   62 1    
   119   60  126 1    
   120   61  127 1    
   121   61  128 1    
   122   61  129 1    
   123   62   63 2    
   124   62   64 am   BACKBONE|DICT|INTERRES
   125   64   65 1    
   126   64  130 1    
   127   65   66 1    
   128   65   69 1    
   129   65  131 1    
   130   66   67 am   BACKBONE|DICT|INTERRES
   131   66   68 2    
   132   67  132 1    
   133   67  133 1    
   134   69   70 1    
   135   69  134 1    
   136   69  135 1    
   137   70   71 1    
   138   71  136 1    
   139   71  137 1    
@<TRIPOS>SUBSTRUCTURE
     1 UNK         1 GROUP             0       ****    0 ROOT    
