@<TRIPOS>MOLECULE
3R137
137   139    1
SMALL
USER_CHARGES


@<TRIPOS>ATOM
      1 CA         26.1519   -6.4037   -1.4718 C.3       0 UNK        -0.2020 
      2 C          26.9999   -6.6622   -2.7157 C.2       0 UNK         0.4855 
      3 O          26.8668   -7.7243   -3.3207 O.2       0 UNK        -0.5197 
      4 N          27.8903   -5.7502   -3.1322 N.am      1 UNK        -0.4892 
      5 CA         28.1340   -4.4104   -2.5806 C.3       1 UNK         0.0835 
      6 C6         29.4235   -3.7913   -3.1704 C.3       12 UNK        -0.0855 
      7 S7         30.9244   -4.6883   -2.6228 S.3       12 UNK        -0.2931 
      8 C8         31.5456   -3.6774   -1.2315 C.3       12 UNK         0.0378 
      9 C9         32.1412   -2.3672   -1.7236 C.ar      12 UNK        -0.0802 
     10 C10        33.4654   -2.3026   -2.1606 C.ar      12 UNK        -0.0944 
     11 C11        33.9696   -1.1276   -2.7299 C.ar      12 UNK        -0.0787 
     12 C12        33.1315   -0.0136   -2.8665 C.ar      12 UNK        -0.0862 
     13 C13        31.8027   -0.0680   -2.4281 C.ar      12 UNK        -0.0733 
     14 C14        31.3427   -1.2282   -1.7985 C.ar      12 UNK        -0.0832 
     15 C15        30.8339    1.0830   -2.6926 C.3       12 UNK         0.0240 
     16 S16        29.2565    0.4427   -3.3556 S.3       12 UNK        -0.2522 
     17 C17        28.3475    1.9164   -3.9187 C.3       12 UNK        -0.0967 
     18 CA         27.8839    1.7577   -5.3896 C.3       5 UNK         0.0660 
     19 N          27.2209    0.4745   -5.6454 N.am      5 UNK        -0.4015 
     20 C          27.1047   -0.0942   -6.8527 C.2       4 UNK         0.4946 
     21 O          27.5551    0.4051   -7.8841 O.2       4 UNK        -0.5353 
     22 CA         26.3732   -1.4444   -6.9378 C.3       4 UNK         0.0277 
     23 CB         27.3789   -2.5952   -6.7828 C.3       4 UNK        -0.1981 
     24 N          25.3045   -1.5832   -5.9462 N.am      4 UNK        -0.4209 
     25 C          24.2346   -0.7755   -5.8810 C.2       3 UNK         0.4942 
     26 O          23.9991    0.1060   -6.7072 O.2       3 UNK        -0.5208 
     27 CA         23.3025   -0.9178   -4.6656 C.3       3 UNK         0.0250 
     28 CB         22.0740   -1.7653   -5.0309 C.3       3 UNK        -0.1990 
     29 N          23.9376   -1.4765   -3.4676 N.am      3 UNK        -0.4232 
     30 C          25.0260   -0.9965   -2.8467 C.2       2 UNK         0.4993 
     31 O          25.6580   -0.0135   -3.2363 O.2       2 UNK        -0.5286 
     32 CA         25.5032   -1.7527   -1.5918 C.3       2 UNK         0.0209 
     33 CB         24.3974   -2.6092   -0.9333 C.3       2 UNK        -0.1931 
     34 N          26.6980   -2.5825   -1.8089 N.am      2 UNK        -0.4546 
     35 C          26.9132   -3.4827   -2.7817 C.2       1 UNK         0.5154 
     36 O          26.1910   -3.6222   -3.7731 O.2       1 UNK        -0.5181 
     37 C          26.9767    2.9230   -5.8190 C.2       5 UNK         0.5014 
     38 O          27.4726    3.8932   -6.3910 O.2       5 UNK        -0.5248 
     39 N          25.6599    2.7834   -5.5957 N.am      6 UNK        -0.4434 
     40 CA         24.6293    3.7101   -6.0770 C.3       6 UNK         0.0363 
     41 CB         23.2789    3.3676   -5.4277 C.3       6 UNK        -0.1936 
     42 C          24.5150    3.7127   -7.6125 C.2       6 UNK         0.5081 
     43 O          24.3068    4.7712   -8.2047 O.2       6 UNK        -0.5248 
     44 N          24.7064    2.5384   -8.2301 N.am      7 UNK        -0.4718 
     45 CA         24.8117    2.3501   -9.6806 C.3       7 UNK         0.0273 
     46 CB         24.5803    0.8638  -10.0018 C.3       7 UNK        -0.1935 
     47 C          26.1524    2.8280  -10.2786 C.2       7 UNK         0.5018 
     48 O          26.2908    2.8169  -11.5022 O.2       7 UNK        -0.5186 
     49 N          27.1106    3.2183   -9.4228 N.am      8 UNK        -0.4240 
     50 CA         28.4677    3.6862   -9.7332 C.3       8 UNK         0.0235 
     51 CB         28.4341    4.9843  -10.5685 C.3       8 UNK        -0.2000 
     52 C          29.3868    2.6071  -10.3414 C.2       8 UNK         0.4941 
     53 O          30.3910    2.9511  -10.9675 O.2       8 UNK        -0.5273 
     54 N          29.0554    1.3279  -10.1247 N.am      9 UNK        -0.4262 
     55 CA         29.8929    0.1794  -10.4719 C.3       9 UNK         0.0264 
     56 CB         28.9969   -1.0186  -10.8289 C.3       9 UNK        -0.1955 
     57 C          30.8317   -0.1703   -9.3079 C.2       9 UNK         0.5031 
     58 O          32.0187   -0.4121   -9.5336 O.2       9 UNK        -0.5390 
     59 N          30.2779   -0.1659   -8.0857 N.am      10 UNK        -0.4204 
     60 CA         30.9267   -0.4539   -6.8039 C.3       10 UNK         0.0237 
     61 CB         31.8269    0.7377   -6.4051 C.3       10 UNK        -0.1985 
     62 C          31.6385   -1.8229   -6.8111 C.2       10 UNK         0.4970 
     63 O          31.0434   -2.8115   -7.2430 O.2       10 UNK        -0.4914 
     64 N          32.8930   -1.8489   -6.3548 N.am      11 UNK        -0.4285 
     65 CA         33.8309   -2.9750   -6.4525 C.3       11 UNK         0.1007 
     66 C          34.4555   -3.1831   -7.8665 C.2       11 UNK         0.5703 
     67 N          34.1323   -2.3895   -8.8815 N.am      11 UNK        -0.7361 
     68 O          35.2449   -4.1058   -8.0561 O.2       11 UNK        -0.4986 
     69 C69        34.9074   -2.9197   -5.3284 C.3       12 UNK        -0.0947 
     70 S70        35.5850   -1.2462   -5.0153 S.3       12 UNK        -0.2240 
     71 C71        35.4167   -1.0746   -3.2061 C.3       12 UNK         0.0194 
     72 H72        26.7360   -5.9717   -0.6608 H         1 UNK         0.0906 
     73 H73        25.3226   -5.7374   -1.7060 H         1 UNK         0.0906 
     74 H74        25.7301   -7.3383   -1.1026 H         1 UNK         0.0906 
     75 H75        28.4325   -5.9658   -3.9559 H         1 UNK         0.3140 
     76 H76        28.2874   -4.5205   -1.5055 H         1 UNK         0.1085 
     77 H77        29.5041   -2.7385   -2.9117 H         1 UNK         0.0836 
     78 H78        29.3928   -3.8148   -4.2614 H         1 UNK         0.0836 
     79 H79        32.3054   -4.2461   -0.6932 H         1 UNK         0.0731 
     80 H80        30.7393   -3.4950   -0.5194 H         1 UNK         0.0731 
     81 H81        34.0940   -3.1793   -2.0850 H         1 UNK         0.1312 
     82 H82        33.5098    0.8835   -3.3374 H         1 UNK         0.1406 
     83 H83        30.3244   -1.2701   -1.4390 H         1 UNK         0.1631 
     84 H84        31.2617    1.7910   -3.4037 H         1 UNK         0.0717 
     85 H85        30.6486    1.6276   -1.7661 H         1 UNK         0.0717 
     86 H86        27.4947    2.0556   -3.2511 H         1 UNK         0.0934 
     87 H87        28.9748    2.8028   -3.8078 H         1 UNK         0.0934 
     88 H88        28.7765    1.7999   -6.0175 H         1 UNK         0.0739 
     89 H89        26.8022    0.0289   -4.8335 H         1 UNK         0.3093 
     90 H90        25.9192   -1.5145   -7.9280 H         1 UNK         0.0818 
     91 H91        28.1511   -2.5479   -7.5523 H         1 UNK         0.0819 
     92 H92        27.8825   -2.5626   -5.8162 H         1 UNK         0.0819 
     93 H93        26.8911   -3.5659   -6.8728 H         1 UNK         0.0819 
     94 H94        25.4387   -2.2789   -5.2185 H         1 UNK         0.3041 
     95 H95        22.9604    0.0864   -4.4077 H         1 UNK         0.0784 
     96 H96        21.5650   -1.3582   -5.9060 H         1 UNK         0.0793 
     97 H97        22.3491   -2.7950   -5.2634 H         1 UNK         0.0793 
     98 H98        21.3480   -1.7855   -4.2178 H         1 UNK         0.0793 
     99 H99        23.5143   -2.3101   -3.0866 H         1 UNK         0.3024 
    100 H100       25.7871   -0.9785   -0.8765 H         1 UNK         0.1171 
    101 H101       24.7303   -3.0012    0.0280 H         1 UNK         0.0786 
    102 H102       23.5005   -2.0188   -0.7390 H         1 UNK         0.0786 
    103 H103       24.1102   -3.4619   -1.5495 H         1 UNK         0.0786 
    104 H104       27.3917   -2.5075   -1.0780 H         1 UNK         0.2977 
    105 H105       25.3386    1.9471   -5.1281 H         1 UNK         0.3127 
    106 H106       24.9128    4.7173   -5.7640 H         1 UNK         0.0770 
    107 H107       22.9297    2.3752   -5.7136 H         1 UNK         0.0814 
    108 H108       22.5113    4.0803   -5.7323 H         1 UNK         0.0814 
    109 H109       23.3395    3.4032   -4.3399 H         1 UNK         0.0814 
    110 H110       24.7728    1.7003   -7.6600 H         1 UNK         0.2983 
    111 H111       24.0209    2.9315  -10.1594 H         1 UNK         0.0947 
    112 H112       24.5695    0.6921  -11.0789 H         1 UNK         0.0806 
    113 H113       23.6248    0.5156   -9.6090 H         1 UNK         0.0806 
    114 H114       25.3647    0.2351   -9.5806 H         1 UNK         0.0806 
    115 H115       26.8899    3.1857   -8.4354 H         1 UNK         0.3000 
    116 H116       28.9157    3.9357   -8.7703 H         1 UNK         0.0850 
    117 H117       29.4292    5.4231  -10.6509 H         1 UNK         0.0810 
    118 H118       27.7892    5.7340  -10.1099 H         1 UNK         0.0810 
    119 H119       28.0750    4.8057  -11.5823 H         1 UNK         0.0810 
    120 H120       28.2461    1.1366   -9.5407 H         1 UNK         0.3040 
    121 H121       30.5054    0.4173  -11.3444 H         1 UNK         0.0766 
    122 H122       28.3631   -0.7942  -11.6869 H         1 UNK         0.0812 
    123 H123       28.3473   -1.3054  -10.0010 H         1 UNK         0.0812 
    124 H124       29.5988   -1.8905  -11.0888 H         1 UNK         0.0812 
    125 H125       29.2802    0.0329   -8.0336 H         1 UNK         0.3205 
    126 H126       30.1306   -0.5359   -6.0637 H         1 UNK         0.0754 
    127 H127       32.6609    0.8710   -7.0954 H         1 UNK         0.0769 
    128 H128       32.2371    0.6089   -5.4058 H         1 UNK         0.0769 
    129 H129       31.2603    1.6687   -6.3931 H         1 UNK         0.0769 
    130 H130       33.3029   -0.9915   -6.0151 H         1 UNK         0.2981 
    131 H131       33.2520   -3.8842   -6.2798 H         1 UNK         0.0541 
    132 H132       33.4379   -1.6561   -8.7919 H         1 UNK         0.3459 
    133 H133       34.5535   -2.5593   -9.7804 H         1 UNK         0.3459 
    134 H134       34.4645   -3.3059   -4.4134 H         1 UNK         0.0612 
    135 H135       35.7404   -3.5948   -5.5317 H         1 UNK         0.0612 
    136 H136       35.8601   -0.1249   -2.9035 H         1 UNK         0.0624 
    137 H137       36.0083   -1.8525   -2.7209 H         1 UNK         0.0624 
@<TRIPOS>BOND
     1    1    2 1    
     2    1   72 1    
     3    1   73 1    
     4    1   74 1    
     5    2    3 2    
     6    2    4 am   BACKBONE|DICT|INTERRES
     7    4    5 1    
     8    4   75 1    
     9    5    6 1    
    10    5   35 1    
    11    5   76 1    
    12    6    7 1    
    13    6   77 1    
    14    6   78 1    
    15    7    8 1    
    16    8    9 1    
    17    8   79 1    
    18    8   80 1    
    19    9   10 ar   
    20    9   14 ar   
    21   10   11 ar   
    22   10   81 1    
    23   11   12 ar   
    24   11   71 1    
    25   12   13 ar   
    26   12   82 1    
    27   13   14 ar   
    28   13   15 1    
    29   14   83 1    
    30   15   16 1    
    31   15   84 1    
    32   15   85 1    
    33   16   17 1    
    34   17   18 1    
    35   17   86 1    
    36   17   87 1    
    37   18   19 1    
    38   18   37 1    
    39   18   88 1    
    40   19   20 am   BACKBONE|DICT|INTERRES
    41   19   89 1    
    42   20   21 2    
    43   20   22 1    
    44   22   23 1    
    45   22   24 1    
    46   22   90 1    
    47   23   91 1    
    48   23   92 1    
    49   23   93 1    
    50   24   25 am   BACKBONE|DICT|INTERRES
    51   24   94 1    
    52   25   26 2    
    53   25   27 1    
    54   27   28 1    
    55   27   29 1    
    56   27   95 1    
    57   28   96 1    
    58   28   97 1    
    59   28   98 1    
    60   29   30 am   BACKBONE|DICT|INTERRES
    61   29   99 1    
    62   30   31 2    
    63   30   32 1    
    64   32   33 1    
    65   32   34 1    
    66   32  100 1    
    67   33  101 1    
    68   33  102 1    
    69   33  103 1    
    70   34   35 am   BACKBONE|DICT|INTERRES
    71   34  104 1    
    72   35   36 2    
    73   37   38 2    
    74   37   39 am   BACKBONE|DICT|INTERRES
    75   39   40 1    
    76   39  105 1    
    77   40   41 1    
    78   40   42 1    
    79   40  106 1    
    80   41  107 1    
    81   41  108 1    
    82   41  109 1    
    83   42   43 2    
    84   42   44 am   BACKBONE|DICT|INTERRES
    85   44   45 1    
    86   44  110 1    
    87   45   46 1    
    88   45   47 1    
    89   45  111 1    
    90   46  112 1    
    91   46  113 1    
    92   46  114 1    
    93   47   48 2    
    94   47   49 am   BACKBONE|DICT|INTERRES
    95   49   50 1    
    96   49  115 1    
    97   50   51 1    
    98   50   52 1    
    99   50  116 1    
   100   51  117 1    
   101   51  118 1    
   102   51  119 1    
   103   52   53 2    
   104   52   54 am   BACKBONE|DICT|INTERRES
   105   54   55 1    
   106   54  120 1    
   107   55   56 1    
   108   55   57 1    
   109   55  121 1    
   110   56  122 1    
   111   56  123 1    
   112   56  124 1    
   113   57   58 2    
   114   57   59 am   BACKBONE|DICT|INTERRES
   115   59   60 1    
   116   59  125 1    
   117   60   61 1    
   118   60   62 1    
   119   60  126 1    
   120   61  127 1    
   121   61  128 1    
   122   61  129 1    
   123   62   63 2    
   124   62   64 am   BACKBONE|DICT|INTERRES
   125   64   65 1    
   126   64  130 1    
   127   65   66 1    
   128   65   69 1    
   129   65  131 1    
   130   66   67 am   BACKBONE|DICT|INTERRES
   131   66   68 2    
   132   67  132 1    
   133   67  133 1    
   134   69   70 1    
   135   69  134 1    
   136   69  135 1    
   137   70   71 1    
   138   71  136 1    
   139   71  137 1    
@<TRIPOS>SUBSTRUCTURE
     1 UNK         1 GROUP             0       ****    0 ROOT    
