@<TRIPOS>MOLECULE
3R137
137   139    1
SMALL
USER_CHARGES


@<TRIPOS>ATOM
      1 CA         29.0523    0.9361   -1.6491 C.3       0 UNK        -0.2020 
      2 C          28.5498   -0.3820   -2.2175 C.2       0 UNK         0.4855 
      3 O          27.9849   -0.4020   -3.3120 O.2       0 UNK        -0.5197 
      4 N          28.7417   -1.4708   -1.4596 N.am      1 UNK        -0.4892 
      5 CA         28.3203   -2.8433   -1.7668 C.3       1 UNK         0.0835 
      6 C6         28.7942   -3.8105   -0.6476 C.3       12 UNK        -0.0855 
      7 S7         28.6827   -5.5759   -1.0933 S.3       12 UNK        -0.2931 
      8 C8         30.4273   -5.9747   -1.4402 C.3       12 UNK         0.0378 
      9 C9         30.9353   -5.2190   -2.6580 C.ar      12 UNK        -0.0802 
     10 C10        31.8824   -4.1980   -2.5238 C.ar      12 UNK        -0.0944 
     11 C11        32.3132   -3.4811   -3.6448 C.ar      12 UNK        -0.0787 
     12 C12        31.8043   -3.8044   -4.9054 C.ar      12 UNK        -0.0862 
     13 C13        30.8300   -4.7964   -5.0425 C.ar      12 UNK        -0.0733 
     14 C14        30.4190   -5.5182   -3.9208 C.ar      12 UNK        -0.0832 
     15 C15        30.1565   -5.0346   -6.3837 C.3       12 UNK         0.0240 
     16 S16        28.5040   -4.2642   -6.4102 S.3       12 UNK        -0.2522 
     17 C17        28.9279   -2.5126   -6.1276 C.3       12 UNK        -0.0967 
     18 CA         27.9827   -1.5654   -6.8890 C.3       5 UNK         0.0660 
     19 N          26.6208   -1.5653   -6.3525 N.am      5 UNK        -0.4015 
     20 C          25.5639   -1.1182   -7.0439 C.2       4 UNK         0.4946 
     21 O          25.6350   -0.6793   -8.1920 O.2       4 UNK        -0.5353 
     22 CA         24.2038   -1.1295   -6.3311 C.3       4 UNK         0.0277 
     23 CB         23.5913   -2.5389   -6.3541 C.3       4 UNK        -0.1981 
     24 N          24.2619   -0.6468   -4.9511 N.am      4 UNK        -0.4209 
     25 C          24.6920    0.5577   -4.5561 C.2       3 UNK         0.4942 
     26 O          25.1173    1.4125   -5.3322 O.2       3 UNK        -0.5208 
     27 CA         24.6597    0.8793   -3.0502 C.3       3 UNK         0.0250 
     28 CB         23.3945    1.6804   -2.6886 C.3       3 UNK        -0.1990 
     29 N          24.8389   -0.2735   -2.1537 N.am      3 UNK        -0.4232 
     30 C          24.0465   -1.3391   -1.9593 C.2       2 UNK         0.4993 
     31 O          22.9798   -1.5170   -2.5493 O.2       2 UNK        -0.5286 
     32 CA         24.5633   -2.3961   -0.9637 C.3       2 UNK         0.0209 
     33 CB         23.8848   -3.7724   -1.1394 C.3       2 UNK        -0.1931 
     34 N          26.0283   -2.5226   -0.9821 N.am      2 UNK        -0.4546 
     35 C          26.7978   -2.9230   -2.0093 C.2       1 UNK         0.5154 
     36 O          26.3660   -3.2715   -3.1099 O.2       1 UNK        -0.5181 
     37 C          28.5635   -0.1433   -6.9843 C.2       5 UNK         0.5014 
     38 O          29.2660    0.1417   -7.9539 O.2       5 UNK        -0.5248 
     39 N          28.2561    0.7396   -6.0233 N.am      6 UNK        -0.4434 
     40 CA         28.6003    2.1635   -6.0956 C.3       6 UNK         0.0363 
     41 CB         28.3036    2.8623   -4.7621 C.3       6 UNK        -0.1936 
     42 C          27.9066    2.8789   -7.2661 C.2       6 UNK         0.5081 
     43 O          28.5687    3.6185   -7.9930 O.2       6 UNK        -0.5248 
     44 N          26.6114    2.5998   -7.4713 N.am      7 UNK        -0.4718 
     45 CA         25.8224    3.0889   -8.6080 C.3       7 UNK         0.0273 
     46 CB         24.3471    2.7046   -8.4147 C.3       7 UNK        -0.1935 
     47 C          26.3460    2.5908   -9.9683 C.2       7 UNK         0.5018 
     48 O          26.3333    3.3515  -10.9364 O.2       7 UNK        -0.5186 
     49 N          26.8356    1.3438  -10.0070 N.am      8 UNK        -0.4240 
     50 CA         27.5054    0.7353  -11.1608 C.3       8 UNK         0.0235 
     51 CB         27.4544   -0.7950  -11.0125 C.3       8 UNK        -0.2000 
     52 C          28.9619    1.2046  -11.3623 C.2       8 UNK         0.4941 
     53 O          29.5736    0.8092  -12.3555 O.2       8 UNK        -0.5273 
     54 N          29.5008    2.0040  -10.4272 N.am      9 UNK        -0.4262 
     55 CA         30.8796    2.5073  -10.3592 C.3       9 UNK         0.0264 
     56 CB         31.2104    3.4098  -11.5672 C.3       9 UNK        -0.1955 
     57 C          31.9375    1.4081  -10.1227 C.2       9 UNK         0.5031 
     58 O          33.1107    1.6132  -10.4388 O.2       9 UNK        -0.5390 
     59 N          31.5206    0.2805   -9.5330 N.am      10 UNK        -0.4204 
     60 CA         32.3813   -0.8237   -9.1021 C.3       10 UNK         0.0237 
     61 CB         31.6168   -2.1473   -9.2766 C.3       10 UNK        -0.1985 
     62 C          32.8559   -0.6586   -7.6460 C.2       10 UNK         0.4970 
     63 O          33.8155   -1.3227   -7.2546 O.2       10 UNK        -0.4914 
     64 N          32.1865    0.2090   -6.8767 N.am      11 UNK        -0.4285 
     65 CA         32.4960    0.5392   -5.4768 C.3       11 UNK         0.1007 
     66 C          32.4645    2.0711   -5.2007 C.2       11 UNK         0.5703 
     67 N          32.5636    2.9212   -6.2169 N.am      11 UNK        -0.7361 
     68 O          32.3514    2.5041   -4.0573 O.2       11 UNK        -0.4986 
     69 C69        31.6175   -0.2908   -4.4987 C.3       12 UNK        -0.0947 
     70 S70        32.5013   -0.7868   -2.9806 S.3       12 UNK        -0.2240 
     71 C71        33.3090   -2.3401   -3.4934 C.3       12 UNK         0.0194 
     72 H72        29.2994    0.8546   -0.5909 H         1 UNK         0.0906 
     73 H73        29.9478    1.2600   -2.1783 H         1 UNK         0.0906 
     74 H74        28.2898    1.7072   -1.7548 H         1 UNK         0.0906 
     75 H75        29.2265   -1.3591   -0.5806 H         1 UNK         0.3140 
     76 H76        28.8146   -3.1251   -2.6993 H         1 UNK         0.1085 
     77 H77        29.8311   -3.5913   -0.3880 H         1 UNK         0.0836 
     78 H78        28.2319   -3.6546    0.2747 H         1 UNK         0.0836 
     79 H79        30.5179   -7.0471   -1.6191 H         1 UNK         0.0731 
     80 H80        31.0347   -5.7580   -0.5599 H         1 UNK         0.0731 
     81 H81        32.2699   -3.9445   -1.5464 H         1 UNK         0.1312 
     82 H82        32.1307   -3.2463   -5.7725 H         1 UNK         0.1406 
     83 H83        29.6565   -6.2790   -4.0221 H         1 UNK         0.1631 
     84 H84        30.0568   -6.1061   -6.5631 H         1 UNK         0.0717 
     85 H85        30.7598   -4.6379   -7.2018 H         1 UNK         0.0717 
     86 H86        28.9199   -2.3059   -5.0559 H         1 UNK         0.0934 
     87 H87        29.9520   -2.3584   -6.4666 H         1 UNK         0.0934 
     88 H88        27.9253   -1.9327   -7.9158 H         1 UNK         0.0739 
     89 H89        26.4950   -1.9066   -5.4084 H         1 UNK         0.3093 
     90 H90        23.5409   -0.4586   -6.8813 H         1 UNK         0.0818 
     91 H91        23.5262   -2.9202   -7.3742 H         1 UNK         0.0819 
     92 H92        24.1869   -3.2477   -5.7767 H         1 UNK         0.0819 
     93 H93        22.5813   -2.5388   -5.9438 H         1 UNK         0.0819 
     94 H94        23.8707   -1.2486   -4.2324 H         1 UNK         0.3041 
     95 H95        25.5197    1.5247   -2.8642 H         1 UNK         0.0784 
     96 H96        23.3246    2.5877   -3.2905 H         1 UNK         0.0793 
     97 H97        22.4839    1.1066   -2.8635 H         1 UNK         0.0793 
     98 H98        23.4036    1.9859   -1.6424 H         1 UNK         0.0793 
     99 H99        25.7199   -0.2813   -1.6603 H         1 UNK         0.3024 
    100 H100       24.2960   -2.0250    0.0273 H         1 UNK         0.1171 
    101 H101       24.2680   -4.4983   -0.4224 H         1 UNK         0.0786 
    102 H102       22.8080   -3.7001   -0.9814 H         1 UNK         0.0786 
    103 H103       24.0377   -4.1768   -2.1405 H         1 UNK         0.0786 
    104 H104       26.4982   -2.2341   -0.1348 H         1 UNK         0.2977 
    105 H105       27.7410    0.4244   -5.2075 H         1 UNK         0.3127 
    106 H106       29.6742    2.2361   -6.2728 H         1 UNK         0.0770 
    107 H107       27.2723    2.7163   -4.4419 H         1 UNK         0.0814 
    108 H108       28.4749    3.9370   -4.8366 H         1 UNK         0.0814 
    109 H109       28.9603    2.4909   -3.9786 H         1 UNK         0.0814 
    110 H110       26.1257    2.0182   -6.7903 H         1 UNK         0.2983 
    111 H111       25.8929    4.1787   -8.6112 H         1 UNK         0.0947 
    112 H112       23.7328    3.0904   -9.2292 H         1 UNK         0.0806 
    113 H113       23.9498    3.1136   -7.4855 H         1 UNK         0.0806 
    114 H114       24.2116    1.6232   -8.3869 H         1 UNK         0.0806 
    115 H115       26.7256    0.7591   -9.1841 H         1 UNK         0.3000 
    116 H116       26.9518    1.0080  -12.0617 H         1 UNK         0.0850 
    117 H117       27.8623   -1.2890  -11.8953 H         1 UNK         0.0810 
    118 H118       26.4312   -1.1497  -10.8875 H         1 UNK         0.0810 
    119 H119       28.0347   -1.1337  -10.1544 H         1 UNK         0.0810 
    120 H120       28.9152    2.2721   -9.6441 H         1 UNK         0.3040 
    121 H121       30.9130    3.1380   -9.4697 H         1 UNK         0.0766 
    122 H122       31.2825    2.8393  -12.4934 H         1 UNK         0.0812 
    123 H123       32.1653    3.9176  -11.4262 H         1 UNK         0.0812 
    124 H124       30.4528    4.1812  -11.7049 H         1 UNK         0.0812 
    125 H125       30.5459    0.2248   -9.2390 H         1 UNK         0.3205 
    126 H126       33.2717   -0.8608   -9.7331 H         1 UNK         0.0754 
    127 H127       32.2168   -2.9958   -8.9447 H         1 UNK         0.0769 
    128 H128       31.3654   -2.3192  -10.3234 H         1 UNK         0.0769 
    129 H129       30.6873   -2.1593   -8.7081 H         1 UNK         0.0769 
    130 H130       31.3848    0.6813   -7.2714 H         1 UNK         0.2981 
    131 H131       33.5397    0.2714   -5.3041 H         1 UNK         0.0541 
    132 H132       32.5462    3.9107   -6.0262 H         1 UNK         0.3459 
    133 H133       32.7347    2.5930   -7.1527 H         1 UNK         0.3459 
    134 H134       31.2543   -1.1932   -4.9803 H         1 UNK         0.0612 
    135 H135       30.7151    0.2566   -4.2255 H         1 UNK         0.0612 
    136 H136       33.8526   -2.1761   -4.4253 H         1 UNK         0.0624 
    137 H137       34.0578   -2.6082   -2.7468 H         1 UNK         0.0624 
@<TRIPOS>BOND
     1    1    2 1    
     2    1   72 1    
     3    1   73 1    
     4    1   74 1    
     5    2    3 2    
     6    2    4 am   BACKBONE|DICT|INTERRES
     7    4    5 1    
     8    4   75 1    
     9    5    6 1    
    10    5   35 1    
    11    5   76 1    
    12    6    7 1    
    13    6   77 1    
    14    6   78 1    
    15    7    8 1    
    16    8    9 1    
    17    8   79 1    
    18    8   80 1    
    19    9   10 ar   
    20    9   14 ar   
    21   10   11 ar   
    22   10   81 1    
    23   11   12 ar   
    24   11   71 1    
    25   12   13 ar   
    26   12   82 1    
    27   13   14 ar   
    28   13   15 1    
    29   14   83 1    
    30   15   16 1    
    31   15   84 1    
    32   15   85 1    
    33   16   17 1    
    34   17   18 1    
    35   17   86 1    
    36   17   87 1    
    37   18   19 1    
    38   18   37 1    
    39   18   88 1    
    40   19   20 am   BACKBONE|DICT|INTERRES
    41   19   89 1    
    42   20   21 2    
    43   20   22 1    
    44   22   23 1    
    45   22   24 1    
    46   22   90 1    
    47   23   91 1    
    48   23   92 1    
    49   23   93 1    
    50   24   25 am   BACKBONE|DICT|INTERRES
    51   24   94 1    
    52   25   26 2    
    53   25   27 1    
    54   27   28 1    
    55   27   29 1    
    56   27   95 1    
    57   28   96 1    
    58   28   97 1    
    59   28   98 1    
    60   29   30 am   BACKBONE|DICT|INTERRES
    61   29   99 1    
    62   30   31 2    
    63   30   32 1    
    64   32   33 1    
    65   32   34 1    
    66   32  100 1    
    67   33  101 1    
    68   33  102 1    
    69   33  103 1    
    70   34   35 am   BACKBONE|DICT|INTERRES
    71   34  104 1    
    72   35   36 2    
    73   37   38 2    
    74   37   39 am   BACKBONE|DICT|INTERRES
    75   39   40 1    
    76   39  105 1    
    77   40   41 1    
    78   40   42 1    
    79   40  106 1    
    80   41  107 1    
    81   41  108 1    
    82   41  109 1    
    83   42   43 2    
    84   42   44 am   BACKBONE|DICT|INTERRES
    85   44   45 1    
    86   44  110 1    
    87   45   46 1    
    88   45   47 1    
    89   45  111 1    
    90   46  112 1    
    91   46  113 1    
    92   46  114 1    
    93   47   48 2    
    94   47   49 am   BACKBONE|DICT|INTERRES
    95   49   50 1    
    96   49  115 1    
    97   50   51 1    
    98   50   52 1    
    99   50  116 1    
   100   51  117 1    
   101   51  118 1    
   102   51  119 1    
   103   52   53 2    
   104   52   54 am   BACKBONE|DICT|INTERRES
   105   54   55 1    
   106   54  120 1    
   107   55   56 1    
   108   55   57 1    
   109   55  121 1    
   110   56  122 1    
   111   56  123 1    
   112   56  124 1    
   113   57   58 2    
   114   57   59 am   BACKBONE|DICT|INTERRES
   115   59   60 1    
   116   59  125 1    
   117   60   61 1    
   118   60   62 1    
   119   60  126 1    
   120   61  127 1    
   121   61  128 1    
   122   61  129 1    
   123   62   63 2    
   124   62   64 am   BACKBONE|DICT|INTERRES
   125   64   65 1    
   126   64  130 1    
   127   65   66 1    
   128   65   69 1    
   129   65  131 1    
   130   66   67 am   BACKBONE|DICT|INTERRES
   131   66   68 2    
   132   67  132 1    
   133   67  133 1    
   134   69   70 1    
   135   69  134 1    
   136   69  135 1    
   137   70   71 1    
   138   71  136 1    
   139   71  137 1    
@<TRIPOS>SUBSTRUCTURE
     1 UNK         1 GROUP             0       ****    0 ROOT    
