@<TRIPOS>MOLECULE
3R137
137   139    1
SMALL
USER_CHARGES


@<TRIPOS>ATOM
      1 CA         29.8221    0.0335    1.0102 C.3       0 UNK        -0.2020 
      2 C          29.3916   -0.6795   -0.2621 C.2       0 UNK         0.4855 
      3 O          29.2961   -0.0507   -1.3135 O.2       0 UNK        -0.5197 
      4 N          29.1193   -1.9869   -0.1754 N.am      1 UNK        -0.4892 
      5 CA         28.7464   -2.8625   -1.2999 C.3       1 UNK         0.0835 
      6 C6         29.0034   -4.3526   -0.9552 C.3       12 UNK        -0.0855 
      7 S7         30.7426   -4.6741   -0.4911 S.3       12 UNK        -0.2931 
      8 C8         31.2804   -5.8695   -1.7561 C.3       12 UNK         0.0378 
      9 C9         31.4533   -5.2287   -3.1261 C.ar      12 UNK        -0.0802 
     10 C10        32.6130   -4.5060   -3.4259 C.ar      12 UNK        -0.0944 
     11 C11        32.7917   -3.9445   -4.6945 C.ar      12 UNK        -0.0787 
     12 C12        31.8001   -4.1095   -5.6653 C.ar      12 UNK        -0.0862 
     13 C13        30.6282   -4.8108   -5.3710 C.ar      12 UNK        -0.0733 
     14 C14        30.4665   -5.3799   -4.1044 C.ar      12 UNK        -0.0832 
     15 C15        29.5328   -4.9445   -6.4194 C.3       12 UNK         0.0240 
     16 S16        27.9803   -4.1601   -5.8808 S.3       12 UNK        -0.2522 
     17 C17        28.4745   -2.4117   -5.6895 C.3       12 UNK        -0.0967 
     18 CA         27.6862   -1.4976   -6.6484 C.3       5 UNK         0.0660 
     19 N          26.2422   -1.5327   -6.4036 N.am      5 UNK        -0.4015 
     20 C          25.3237   -1.1632   -7.3055 C.2       4 UNK         0.4946 
     21 O          25.5983   -0.7422   -8.4287 O.2       4 UNK        -0.5353 
     22 CA         23.8526   -1.2316   -6.8679 C.3       4 UNK         0.0277 
     23 CB         23.3618   -2.6877   -6.8187 C.3       4 UNK        -0.1981 
     24 N          23.6199   -0.5836   -5.5762 N.am      4 UNK        -0.4209 
     25 C          23.8345    0.7168   -5.3292 C.2       3 UNK         0.4942 
     26 O          24.2160    1.5219   -6.1774 O.2       3 UNK        -0.5208 
     27 CA         23.6152    1.2024   -3.8869 C.3       3 UNK         0.0250 
     28 CB         22.1748    1.7083   -3.7081 C.3       3 UNK        -0.1990 
     29 N          23.9140    0.2072   -2.8510 N.am      3 UNK        -0.4232 
     30 C          25.0905   -0.4119   -2.6726 C.2       2 UNK         0.4993 
     31 O          26.0565   -0.2730   -3.4295 O.2       2 UNK        -0.5286 
     32 CA         25.1693   -1.3176   -1.4270 C.3       2 UNK         0.0209 
     33 CB         24.1794   -2.5010   -1.5127 C.3       2 UNK        -0.1931 
     34 N          26.5317   -1.7749   -1.1204 N.am      2 UNK        -0.4546 
     35 C          27.2919   -2.6535   -1.7920 C.2       1 UNK         0.5154 
     36 O          26.8875   -3.3094   -2.7513 O.2       1 UNK        -0.5181 
     37 C          28.2340   -0.0610   -6.6176 C.2       5 UNK         0.5014 
     38 O          29.1765    0.2294   -7.3556 O.2       5 UNK        -0.5248 
     39 N          27.6310    0.8259   -5.8131 N.am      6 UNK        -0.4434 
     40 CA         27.9376    2.2589   -5.8215 C.3       6 UNK         0.0363 
     41 CB         27.2152    2.9573   -4.6608 C.3       6 UNK        -0.1936 
     42 C          27.6013    2.9292   -7.1656 C.2       6 UNK         0.5081 
     43 O          28.3592    3.7877   -7.6155 O.2       6 UNK        -0.5248 
     44 N          26.4928    2.5123   -7.7910 N.am      7 UNK        -0.4718 
     45 CA         26.0685    2.9715   -9.1108 C.3       7 UNK         0.0273 
     46 CB         24.5562    2.7416   -9.2735 C.3       7 UNK        -0.1935 
     47 C          26.8538    2.2996  -10.2488 C.2       7 UNK         0.5018 
     48 O          27.4447    3.0037  -11.0683 O.2       7 UNK        -0.5186 
     49 N          26.8111    0.9608  -10.3113 N.am      8 UNK        -0.4240 
     50 CA         27.2865    0.1862  -11.4607 C.3       8 UNK         0.0235 
     51 CB         26.5650   -1.1713  -11.5055 C.3       8 UNK        -0.2000 
     52 C          28.8069   -0.0160  -11.4835 C.2       8 UNK         0.4941 
     53 O          29.4204    0.1678  -12.5356 O.2       8 UNK        -0.5273 
     54 N          29.3843   -0.4174  -10.3436 N.am      9 UNK        -0.4262 
     55 CA         30.8062   -0.7605  -10.2264 C.3       9 UNK         0.0264 
     56 CB         30.9641   -1.9376   -9.2449 C.3       9 UNK        -0.1955 
     57 C          31.6767    0.4291   -9.7890 C.2       9 UNK         0.5031 
     58 O          32.9017    0.3215   -9.8610 O.2       9 UNK        -0.5390 
     59 N          31.0419    1.5144   -9.3171 N.am      10 UNK        -0.4204 
     60 CA         31.6444    2.6767   -8.6507 C.3       10 UNK         0.0237 
     61 CB         32.5244    3.4885   -9.6256 C.3       10 UNK        -0.1985 
     62 C          32.3759    2.2769   -7.3523 C.2       10 UNK         0.4970 
     63 O          33.4471    2.8102   -7.0566 O.2       10 UNK        -0.4914 
     64 N          31.7856    1.3236   -6.6229 N.am      11 UNK        -0.4285 
     65 CA         32.3350    0.6921   -5.4221 C.3       11 UNK         0.1007 
     66 C          31.3214    0.8325   -4.2541 C.2       11 UNK         0.5703 
     67 N          30.9631   -0.2427   -3.5675 N.am      11 UNK        -0.7361 
     68 O          30.8920    1.9391   -3.9363 O.2       11 UNK        -0.4986 
     69 C69        32.8008   -0.7542   -5.7485 C.3       12 UNK        -0.0947 
     70 S70        33.9542   -1.4303   -4.5073 S.3       12 UNK        -0.2240 
     71 C71        34.0617   -3.1722   -5.0220 C.3       12 UNK         0.0194 
     72 H72        30.8140    0.4650    0.8786 H         1 UNK         0.0906 
     73 H73        29.1277    0.8408    1.2414 H         1 UNK         0.0906 
     74 H74        29.8566   -0.6412    1.8655 H         1 UNK         0.0906 
     75 H75        29.2284   -2.4565    0.7129 H         1 UNK         0.3140 
     76 H76        29.3858   -2.6060   -2.1481 H         1 UNK         0.1085 
     77 H77        28.3670   -4.6660   -0.1256 H         1 UNK         0.0836 
     78 H78        28.7317   -4.9934   -1.7953 H         1 UNK         0.0836 
     79 H79        32.2301   -6.3050   -1.4419 H         1 UNK         0.0731 
     80 H80        30.5711   -6.6976   -1.8007 H         1 UNK         0.0731 
     81 H81        33.3785   -4.3836   -2.6716 H         1 UNK         0.1312 
     82 H82        31.9369   -3.6796   -6.6482 H         1 UNK         0.1406 
     83 H83        29.5630   -5.9316   -3.8822 H         1 UNK         0.1631 
     84 H84        29.3479   -6.0023   -6.6109 H         1 UNK         0.0717 
     85 H85        29.8403   -4.5067   -7.3705 H         1 UNK         0.0717 
     86 H86        28.3172   -2.1106   -4.6528 H         1 UNK         0.0934 
     87 H87        29.5458   -2.3137   -5.8698 H         1 UNK         0.0934 
     88 H88        27.8570   -1.8688   -7.6617 H         1 UNK         0.0739 
     89 H89        25.9491   -1.8315   -5.4836 H         1 UNK         0.3093 
     90 H90        23.2626   -0.6983   -7.6166 H         1 UNK         0.0818 
     91 H91        22.2941   -2.7391   -6.6044 H         1 UNK         0.0819 
     92 H92        23.5217   -3.1843   -7.7769 H         1 UNK         0.0819 
     93 H93        23.8852   -3.2700   -6.0592 H         1 UNK         0.0819 
     94 H94        23.3054   -1.1684   -4.8160 H         1 UNK         0.3041 
     95 H95        24.2889    2.0444   -3.7224 H         1 UNK         0.0784 
     96 H96        21.9333    2.4686   -4.4527 H         1 UNK         0.0793 
     97 H97        21.4465    0.9036   -3.8165 H         1 UNK         0.0793 
     98 H98        22.0311    2.1632   -2.7278 H         1 UNK         0.0793 
     99 H99        23.1758    0.0315   -2.1843 H         1 UNK         0.3024 
    100 H100       24.8761   -0.6990   -0.5769 H         1 UNK         0.1171 
    101 H101       23.1455   -2.1549   -1.5161 H         1 UNK         0.0786 
    102 H102       24.2875   -3.1705   -0.6593 H         1 UNK         0.0786 
    103 H103       24.3224   -3.0902   -2.4191 H         1 UNK         0.0786 
    104 H104       26.9935   -1.2793   -0.3712 H         1 UNK         0.2977 
    105 H105       26.9115    0.5054   -5.1723 H         1 UNK         0.3127 
    106 H106       29.0111    2.3694   -5.6666 H         1 UNK         0.0770 
    107 H107       26.1350    2.9529   -4.7991 H         1 UNK         0.0814 
    108 H108       27.5276    3.9993   -4.5830 H         1 UNK         0.0814 
    109 H109       27.4389    2.4779   -3.7071 H         1 UNK         0.0814 
    110 H110       25.8822    1.8530   -7.3184 H         1 UNK         0.2983 
    111 H111       26.2480    4.0472   -9.1773 H         1 UNK         0.0947 
    112 H112       24.2134    3.0662  -10.2568 H         1 UNK         0.0806 
    113 H113       23.9910    3.3047   -8.5305 H         1 UNK         0.0806 
    114 H114       24.2889    1.6899   -9.1627 H         1 UNK         0.0806 
    115 H115       26.3166    0.4417   -9.5853 H         1 UNK         0.3000 
    116 H116       27.0159    0.7283  -12.3699 H         1 UNK         0.0850 
    117 H117       26.8604   -1.7415  -12.3873 H         1 UNK         0.0810 
    118 H118       25.4832   -1.0437  -11.5493 H         1 UNK         0.0810 
    119 H119       26.7927   -1.7827  -10.6315 H         1 UNK         0.0810 
    120 H120       28.8251   -0.4958   -9.5045 H         1 UNK         0.3040 
    121 H121       31.1818   -1.0917  -11.1971 H         1 UNK         0.0766 
    122 H122       32.0031   -2.2667   -9.1988 H         1 UNK         0.0812 
    123 H123       30.3680   -2.7960   -9.5547 H         1 UNK         0.0812 
    124 H124       30.6684   -1.6718   -8.2310 H         1 UNK         0.0812 
    125 H125       30.0335    1.4612   -9.2664 H         1 UNK         0.3205 
    126 H126       30.8189    3.3194   -8.3463 H         1 UNK         0.0754 
    127 H127       32.8569    4.4201   -9.1663 H         1 UNK         0.0769 
    128 H128       31.9743    3.7519  -10.5290 H         1 UNK         0.0769 
    129 H129       33.4170    2.9381   -9.9242 H         1 UNK         0.0769 
    130 H130       30.8790    0.9718   -6.9205 H         1 UNK         0.2981 
    131 H131       33.2126    1.2535   -5.0976 H         1 UNK         0.0541 
    132 H132       31.3798   -1.1385   -3.7637 H         1 UNK         0.3459 
    133 H133       30.3220   -0.1302   -2.7841 H         1 UNK         0.3459 
    134 H134       33.3249   -0.7682   -6.7058 H         1 UNK         0.0612 
    135 H135       31.9389   -1.4086   -5.8712 H         1 UNK         0.0612 
    136 H136       34.2798   -3.2230   -6.0900 H         1 UNK         0.0624 
    137 H137       34.9106   -3.6343   -4.5160 H         1 UNK         0.0624 
@<TRIPOS>BOND
     1    1    2 1    
     2    1   72 1    
     3    1   73 1    
     4    1   74 1    
     5    2    3 2    
     6    2    4 am   BACKBONE|DICT|INTERRES
     7    4    5 1    
     8    4   75 1    
     9    5    6 1    
    10    5   35 1    
    11    5   76 1    
    12    6    7 1    
    13    6   77 1    
    14    6   78 1    
    15    7    8 1    
    16    8    9 1    
    17    8   79 1    
    18    8   80 1    
    19    9   10 ar   
    20    9   14 ar   
    21   10   11 ar   
    22   10   81 1    
    23   11   12 ar   
    24   11   71 1    
    25   12   13 ar   
    26   12   82 1    
    27   13   14 ar   
    28   13   15 1    
    29   14   83 1    
    30   15   16 1    
    31   15   84 1    
    32   15   85 1    
    33   16   17 1    
    34   17   18 1    
    35   17   86 1    
    36   17   87 1    
    37   18   19 1    
    38   18   37 1    
    39   18   88 1    
    40   19   20 am   BACKBONE|DICT|INTERRES
    41   19   89 1    
    42   20   21 2    
    43   20   22 1    
    44   22   23 1    
    45   22   24 1    
    46   22   90 1    
    47   23   91 1    
    48   23   92 1    
    49   23   93 1    
    50   24   25 am   BACKBONE|DICT|INTERRES
    51   24   94 1    
    52   25   26 2    
    53   25   27 1    
    54   27   28 1    
    55   27   29 1    
    56   27   95 1    
    57   28   96 1    
    58   28   97 1    
    59   28   98 1    
    60   29   30 am   BACKBONE|DICT|INTERRES
    61   29   99 1    
    62   30   31 2    
    63   30   32 1    
    64   32   33 1    
    65   32   34 1    
    66   32  100 1    
    67   33  101 1    
    68   33  102 1    
    69   33  103 1    
    70   34   35 am   BACKBONE|DICT|INTERRES
    71   34  104 1    
    72   35   36 2    
    73   37   38 2    
    74   37   39 am   BACKBONE|DICT|INTERRES
    75   39   40 1    
    76   39  105 1    
    77   40   41 1    
    78   40   42 1    
    79   40  106 1    
    80   41  107 1    
    81   41  108 1    
    82   41  109 1    
    83   42   43 2    
    84   42   44 am   BACKBONE|DICT|INTERRES
    85   44   45 1    
    86   44  110 1    
    87   45   46 1    
    88   45   47 1    
    89   45  111 1    
    90   46  112 1    
    91   46  113 1    
    92   46  114 1    
    93   47   48 2    
    94   47   49 am   BACKBONE|DICT|INTERRES
    95   49   50 1    
    96   49  115 1    
    97   50   51 1    
    98   50   52 1    
    99   50  116 1    
   100   51  117 1    
   101   51  118 1    
   102   51  119 1    
   103   52   53 2    
   104   52   54 am   BACKBONE|DICT|INTERRES
   105   54   55 1    
   106   54  120 1    
   107   55   56 1    
   108   55   57 1    
   109   55  121 1    
   110   56  122 1    
   111   56  123 1    
   112   56  124 1    
   113   57   58 2    
   114   57   59 am   BACKBONE|DICT|INTERRES
   115   59   60 1    
   116   59  125 1    
   117   60   61 1    
   118   60   62 1    
   119   60  126 1    
   120   61  127 1    
   121   61  128 1    
   122   61  129 1    
   123   62   63 2    
   124   62   64 am   BACKBONE|DICT|INTERRES
   125   64   65 1    
   126   64  130 1    
   127   65   66 1    
   128   65   69 1    
   129   65  131 1    
   130   66   67 am   BACKBONE|DICT|INTERRES
   131   66   68 2    
   132   67  132 1    
   133   67  133 1    
   134   69   70 1    
   135   69  134 1    
   136   69  135 1    
   137   70   71 1    
   138   71  136 1    
   139   71  137 1    
@<TRIPOS>SUBSTRUCTURE
     1 UNK         1 GROUP             0       ****    0 ROOT    
