@<TRIPOS>MOLECULE
3R137
137   139    1
SMALL
USER_CHARGES


@<TRIPOS>ATOM
      1 CA         29.0154   -2.9656    3.4602 C.3       0 UNK        -0.2020 
      2 C          28.7078   -2.8223    1.9772 C.2       0 UNK         0.4855 
      3 O          28.7743   -1.7154    1.4419 O.2       0 UNK        -0.5197 
      4 N          28.3826   -3.9344    1.3072 N.am      1 UNK        -0.4892 
      5 CA         28.0103   -3.9770   -0.1114 C.3       1 UNK         0.0835 
      6 C6         28.0603   -5.4213   -0.6735 C.3       12 UNK        -0.0855 
      7 S7         29.6433   -6.3210   -0.4806 S.3       12 UNK        -0.2931 
      8 C8         30.9462   -5.0459   -0.6495 C.3       12 UNK         0.0378 
      9 C9         31.0895   -4.3929   -2.0270 C.ar      12 UNK        -0.0802 
     10 C10        31.9371   -3.2863   -2.1409 C.ar      12 UNK        -0.0944 
     11 C11        32.1678   -2.6840   -3.3799 C.ar      12 UNK        -0.0787 
     12 C12        31.5398   -3.1934   -4.5171 C.ar      12 UNK        -0.0862 
     13 C13        30.6460   -4.2650   -4.4207 C.ar      12 UNK        -0.0733 
     14 C14        30.4435   -4.8711   -3.1765 C.ar      12 UNK        -0.0832 
     15 C15        29.9162   -4.8099   -5.6471 C.3       12 UNK         0.0240 
     16 S16        29.5133   -3.5520   -6.9079 S.3       12 UNK        -0.2522 
     17 C17        28.3207   -2.4880   -6.0314 C.3       12 UNK        -0.0967 
     18 CA         27.5945   -1.5234   -7.0067 C.3       5 UNK         0.0660 
     19 N          26.2022   -1.2969   -6.6075 N.am      5 UNK        -0.4015 
     20 C          25.2467   -0.8547   -7.4400 C.2       4 UNK         0.4946 
     21 O          25.4437   -0.6016   -8.6274 O.2       4 UNK        -0.5353 
     22 CA         23.8449   -0.6132   -6.8502 C.3       4 UNK         0.0277 
     23 CB         23.0028   -1.8964   -6.9279 C.3       4 UNK        -0.1981 
     24 N          23.8694   -0.1291   -5.4689 N.am      4 UNK        -0.4209 
     25 C          24.4689    0.9987   -5.0613 C.2       3 UNK         0.4942 
     26 O          24.9965    1.8028   -5.8271 O.2       3 UNK        -0.5208 
     27 CA         24.5555    1.2448   -3.5458 C.3       3 UNK         0.0250 
     28 CB         23.4479    2.2108   -3.0969 C.3       3 UNK        -0.1990 
     29 N          24.4994    0.0236   -2.7327 N.am      3 UNK        -0.4232 
     30 C          25.3675   -0.9959   -2.8004 C.2       2 UNK         0.4993 
     31 O          26.3075   -1.0584   -3.5998 O.2       2 UNK        -0.5286 
     32 CA         25.0956   -2.1741   -1.8651 C.3       2 UNK         0.0209 
     33 CB         24.2010   -3.2200   -2.5554 C.3       2 UNK        -0.1931 
     34 N          26.3679   -2.7827   -1.4903 N.am      2 UNK        -0.4546 
     35 C          26.6008   -3.3868   -0.3205 C.2       1 UNK         0.5154 
     36 O          25.7426   -3.5255    0.5566 O.2       1 UNK        -0.5181 
     37 C          28.3549   -0.1921   -7.2047 C.2       5 UNK         0.5014 
     38 O          29.2283   -0.1059   -8.0725 O.2       5 UNK        -0.5248 
     39 N          27.9904    0.8386   -6.4270 N.am      6 UNK        -0.4434 
     40 CA         28.4774    2.2083   -6.5986 C.3       6 UNK         0.0363 
     41 CB         28.2245    3.0252   -5.3216 C.3       6 UNK        -0.1936 
     42 C          27.8487    2.8831   -7.8277 C.2       6 UNK         0.5081 
     43 O          28.5665    3.5250   -8.5920 O.2       6 UNK        -0.5248 
     44 N          26.5375    2.6887   -8.0338 N.am      7 UNK        -0.4718 
     45 CA         25.7918    3.1695   -9.2042 C.3       7 UNK         0.0273 
     46 CB         24.2922    2.8992   -9.0095 C.3       7 UNK        -0.1935 
     47 C          26.2861    2.5602  -10.5287 C.2       7 UNK         0.5018 
     48 O          26.3252    3.2608  -11.5403 O.2       7 UNK        -0.5186 
     49 N          26.7032    1.2869  -10.4862 N.am      8 UNK        -0.4240 
     50 CA         27.3770    0.5789  -11.5786 C.3       8 UNK         0.0235 
     51 CB         27.3388   -0.9315  -11.2882 C.3       8 UNK        -0.2000 
     52 C          28.8301    1.0367  -11.8232 C.2       8 UNK         0.4941 
     53 O          29.4301    0.5901  -12.8015 O.2       8 UNK        -0.5273 
     54 N          29.3782    1.8848  -10.9375 N.am      9 UNK        -0.4262 
     55 CA         30.7471    2.4147  -10.9268 C.3       9 UNK         0.0264 
     56 CB         31.0246    3.2756  -12.1781 C.3       9 UNK        -0.1955 
     57 C          31.8278    1.3439  -10.6824 C.2       9 UNK         0.5031 
     58 O          32.9886    1.5636  -11.0353 O.2       9 UNK        -0.5390 
     59 N          31.4444    0.2173  -10.0663 N.am      10 UNK        -0.4204 
     60 CA         32.3653   -0.8212   -9.6072 C.3       10 UNK         0.0237 
     61 CB         31.6529   -2.1811   -9.6065 C.3       10 UNK        -0.1985 
     62 C          32.9215   -0.4656   -8.2206 C.2       10 UNK         0.4970 
     63 O          34.1264   -0.6001   -8.0039 O.2       10 UNK        -0.4914 
     64 N          32.0450    0.0201   -7.3321 N.am      11 UNK        -0.4285 
     65 CA         32.4092    0.6748   -6.0690 C.3       11 UNK         0.1007 
     66 C          32.5565    2.2137   -6.2381 C.2       11 UNK         0.5703 
     67 N          33.0192    2.9070   -5.2076 N.am      11 UNK        -0.7361 
     68 O          32.2498    2.7888   -7.2812 O.2       11 UNK        -0.4986 
     69 C69        31.4265    0.2817   -4.9292 C.3       12 UNK        -0.0947 
     70 S70        32.2573    0.0970   -3.3142 S.3       12 UNK        -0.2240 
     71 C71        33.1167   -1.5012   -3.4948 C.3       12 UNK         0.0194 
     72 H72        28.3210   -2.3646    4.0468 H         1 UNK         0.0906 
     73 H73        30.0271   -2.6188    3.6688 H         1 UNK         0.0906 
     74 H74        28.9359   -3.9996    3.7955 H         1 UNK         0.0906 
     75 H75        28.3235   -4.8156    1.7974 H         1 UNK         0.3140 
     76 H76        28.7129   -3.3535   -0.6684 H         1 UNK         0.1085 
     77 H77        27.8159   -5.4143   -1.7374 H         1 UNK         0.0836 
     78 H78        27.2883   -6.0334   -0.2021 H         1 UNK         0.0836 
     79 H79        30.8099   -4.2783    0.1121 H         1 UNK         0.0731 
     80 H80        31.8976   -5.5245   -0.4136 H         1 UNK         0.0731 
     81 H81        32.4381   -2.9022   -1.2623 H         1 UNK         0.1312 
     82 H82        31.7418   -2.7430   -5.4788 H         1 UNK         0.1406 
     83 H83        29.7897   -5.7291   -3.1189 H         1 UNK         0.1631 
     84 H84        28.9916   -5.3072   -5.3499 H         1 UNK         0.0717 
     85 H85        30.5435   -5.5729   -6.1093 H         1 UNK         0.0717 
     86 H86        27.6001   -3.1512   -5.5495 H         1 UNK         0.0934 
     87 H87        28.8169   -1.9546   -5.2180 H         1 UNK         0.0934 
     88 H88        27.5536   -2.0026   -7.9877 H         1 UNK         0.0739 
     89 H89        25.9903   -1.4188   -5.6230 H         1 UNK         0.3093 
     90 H90        23.3579    0.1517   -7.4575 H         1 UNK         0.0818 
     91 H91        22.9529   -2.2675   -7.9528 H         1 UNK         0.0819 
     92 H92        23.4208   -2.6943   -6.3126 H         1 UNK         0.0819 
     93 H93        21.9782   -1.7200   -6.6002 H         1 UNK         0.0819 
     94 H94        23.4488   -0.7227   -4.7696 H         1 UNK         0.3041 
     95 H95        25.5206    1.7188   -3.3548 H         1 UNK         0.0784 
     96 H96        23.4834    3.1384   -3.6706 H         1 UNK         0.0793 
     97 H97        22.4550    1.7806   -3.2346 H         1 UNK         0.0793 
     98 H98        23.5562    2.4796   -2.0459 H         1 UNK         0.0793 
     99 H99        23.7472   -0.0258   -2.0598 H         1 UNK         0.3024 
    100 H100       24.5930   -1.7971   -0.9708 H         1 UNK         0.1171 
    101 H101       23.2419   -2.7892   -2.8455 H         1 UNK         0.0786 
    102 H102       23.9887   -4.0589   -1.8923 H         1 UNK         0.0786 
    103 H103       24.6685   -3.6181   -3.4572 H         1 UNK         0.0786 
    104 H104       27.1123   -2.6515   -2.1641 H         1 UNK         0.2977 
    105 H105       27.2487    0.7006   -5.7549 H         1 UNK         0.3127 
    106 H106       29.5554    2.1706   -6.7635 H         1 UNK         0.0770 
    107 H107       28.6925    2.5626   -4.4528 H         1 UNK         0.0814 
    108 H108       28.6419    4.0284   -5.4176 H         1 UNK         0.0814 
    109 H109       27.1612    3.1367   -5.1097 H         1 UNK         0.0814 
    110 H110       25.9990    2.2101   -7.3138 H         1 UNK         0.2983 
    111 H111       25.9395    4.2499   -9.2648 H         1 UNK         0.0947 
    112 H112       24.0779    1.8314   -8.9764 H         1 UNK         0.0806 
    113 H113       23.7109    3.3220   -9.8299 H         1 UNK         0.0806 
    114 H114       23.9232    3.3451   -8.0855 H         1 UNK         0.0806 
    115 H115       26.5342    0.7542   -9.6379 H         1 UNK         0.3000 
    116 H116       26.8209    0.7658  -12.4996 H         1 UNK         0.0850 
    117 H117       27.7931   -1.5011  -12.1001 H         1 UNK         0.0810 
    118 H118       26.3148   -1.2889  -11.1786 H         1 UNK         0.0810 
    119 H119       27.8797   -1.1788  -10.3741 H         1 UNK         0.0810 
    120 H120       28.8023    2.2104  -10.1684 H         1 UNK         0.3040 
    121 H121       30.7992    3.0773  -10.0617 H         1 UNK         0.0766 
    122 H122       31.0773    2.6711  -13.0838 H         1 UNK         0.0812 
    123 H123       31.9745    3.8036  -12.0864 H         1 UNK         0.0812 
    124 H124       30.2499    4.0291  -12.3203 H         1 UNK         0.0812 
    125 H125       30.4818    0.1395   -9.7563 H         1 UNK         0.3205 
    126 H126       33.2102   -0.8902  -10.2961 H         1 UNK         0.0754 
    127 H127       32.2764   -2.9560   -9.1584 H         1 UNK         0.0769 
    128 H128       31.4154   -2.4995  -10.6216 H         1 UNK         0.0769 
    129 H129       30.7195   -2.1428   -9.0483 H         1 UNK         0.0769 
    130 H130       31.0705    0.0962   -7.6076 H         1 UNK         0.2981 
    131 H131       33.4056    0.3235   -5.7990 H         1 UNK         0.0541 
    132 H132       33.1213    3.9059   -5.2927 H         1 UNK         0.3459 
    133 H133       33.2502    2.4477   -4.3399 H         1 UNK         0.3459 
    134 H134       30.9130   -0.6502   -5.1567 H         1 UNK         0.0612 
    135 H135       30.6283    1.0171   -4.8214 H         1 UNK         0.0612 
    136 H136       33.8825   -1.5692   -2.7209 H         1 UNK         0.0624 
    137 H137       33.6497   -1.5370   -4.4456 H         1 UNK         0.0624 
@<TRIPOS>BOND
     1    1    2 1    
     2    1   72 1    
     3    1   73 1    
     4    1   74 1    
     5    2    3 2    
     6    2    4 am   BACKBONE|DICT|INTERRES
     7    4    5 1    
     8    4   75 1    
     9    5    6 1    
    10    5   35 1    
    11    5   76 1    
    12    6    7 1    
    13    6   77 1    
    14    6   78 1    
    15    7    8 1    
    16    8    9 1    
    17    8   79 1    
    18    8   80 1    
    19    9   10 ar   
    20    9   14 ar   
    21   10   11 ar   
    22   10   81 1    
    23   11   12 ar   
    24   11   71 1    
    25   12   13 ar   
    26   12   82 1    
    27   13   14 ar   
    28   13   15 1    
    29   14   83 1    
    30   15   16 1    
    31   15   84 1    
    32   15   85 1    
    33   16   17 1    
    34   17   18 1    
    35   17   86 1    
    36   17   87 1    
    37   18   19 1    
    38   18   37 1    
    39   18   88 1    
    40   19   20 am   BACKBONE|DICT|INTERRES
    41   19   89 1    
    42   20   21 2    
    43   20   22 1    
    44   22   23 1    
    45   22   24 1    
    46   22   90 1    
    47   23   91 1    
    48   23   92 1    
    49   23   93 1    
    50   24   25 am   BACKBONE|DICT|INTERRES
    51   24   94 1    
    52   25   26 2    
    53   25   27 1    
    54   27   28 1    
    55   27   29 1    
    56   27   95 1    
    57   28   96 1    
    58   28   97 1    
    59   28   98 1    
    60   29   30 am   BACKBONE|DICT|INTERRES
    61   29   99 1    
    62   30   31 2    
    63   30   32 1    
    64   32   33 1    
    65   32   34 1    
    66   32  100 1    
    67   33  101 1    
    68   33  102 1    
    69   33  103 1    
    70   34   35 am   BACKBONE|DICT|INTERRES
    71   34  104 1    
    72   35   36 2    
    73   37   38 2    
    74   37   39 am   BACKBONE|DICT|INTERRES
    75   39   40 1    
    76   39  105 1    
    77   40   41 1    
    78   40   42 1    
    79   40  106 1    
    80   41  107 1    
    81   41  108 1    
    82   41  109 1    
    83   42   43 2    
    84   42   44 am   BACKBONE|DICT|INTERRES
    85   44   45 1    
    86   44  110 1    
    87   45   46 1    
    88   45   47 1    
    89   45  111 1    
    90   46  112 1    
    91   46  113 1    
    92   46  114 1    
    93   47   48 2    
    94   47   49 am   BACKBONE|DICT|INTERRES
    95   49   50 1    
    96   49  115 1    
    97   50   51 1    
    98   50   52 1    
    99   50  116 1    
   100   51  117 1    
   101   51  118 1    
   102   51  119 1    
   103   52   53 2    
   104   52   54 am   BACKBONE|DICT|INTERRES
   105   54   55 1    
   106   54  120 1    
   107   55   56 1    
   108   55   57 1    
   109   55  121 1    
   110   56  122 1    
   111   56  123 1    
   112   56  124 1    
   113   57   58 2    
   114   57   59 am   BACKBONE|DICT|INTERRES
   115   59   60 1    
   116   59  125 1    
   117   60   61 1    
   118   60   62 1    
   119   60  126 1    
   120   61  127 1    
   121   61  128 1    
   122   61  129 1    
   123   62   63 2    
   124   62   64 am   BACKBONE|DICT|INTERRES
   125   64   65 1    
   126   64  130 1    
   127   65   66 1    
   128   65   69 1    
   129   65  131 1    
   130   66   67 am   BACKBONE|DICT|INTERRES
   131   66   68 2    
   132   67  132 1    
   133   67  133 1    
   134   69   70 1    
   135   69  134 1    
   136   69  135 1    
   137   70   71 1    
   138   71  136 1    
   139   71  137 1    
@<TRIPOS>SUBSTRUCTURE
     1 UNK         1 GROUP             0       ****    0 ROOT    
