@<TRIPOS>MOLECULE
3R137
137   139    1
SMALL
USER_CHARGES


@<TRIPOS>ATOM
      1 CA         29.6526   -5.8209   -5.6510 C.3       0 UNK        -0.2020 
      2 C          28.5651   -5.9475   -4.5950 C.2       0 UNK         0.4855 
      3 O          27.9671   -7.0141   -4.4524 O.2       0 UNK        -0.5197 
      4 N          28.2965   -4.8626   -3.8639 N.am      1 UNK        -0.4892 
      5 CA         27.2286   -4.7402   -2.8751 C.3       1 UNK         0.0835 
      6 C6         27.5682   -5.4477   -1.5260 C.3       12 UNK        -0.0855 
      7 S7         28.3841   -4.4711   -0.2107 S.3       12 UNK        -0.2931 
      8 C8         30.1491   -4.5805   -0.6534 C.3       12 UNK         0.0378 
      9 C9         30.5908   -3.4193   -1.5352 C.ar      12 UNK        -0.0802 
     10 C10        31.1793   -3.6561   -2.7807 C.ar      12 UNK        -0.0944 
     11 C11        31.5868   -2.5890   -3.5870 C.ar      12 UNK        -0.0787 
     12 C12        31.4101   -1.2784   -3.1346 C.ar      12 UNK        -0.0862 
     13 C13        30.8339   -1.0247   -1.8858 C.ar      12 UNK        -0.0733 
     14 C14        30.4335   -2.1021   -1.0908 C.ar      12 UNK        -0.0832 
     15 C15        30.6416    0.4017   -1.3734 C.3       12 UNK         0.0240 
     16 S16        30.0602    1.5876   -2.6357 S.3       12 UNK        -0.2522 
     17 C17        28.5106    0.8129   -3.2036 C.3       12 UNK        -0.0967 
     18 CA         28.3203    0.9638   -4.7367 C.3       5 UNK         0.0660 
     19 N          27.6488   -0.1959   -5.3254 N.am      5 UNK        -0.4015 
     20 C          27.4572   -0.4019   -6.6364 C.2       4 UNK         0.4946 
     21 O          27.9101    0.3170   -7.5268 O.2       4 UNK        -0.5353 
     22 CA         26.5697   -1.5932   -7.0248 C.3       4 UNK         0.0277 
     23 CB         27.3987   -2.8840   -7.1126 C.3       4 UNK        -0.1981 
     24 N          25.4465   -1.7709   -6.1006 N.am      4 UNK        -0.4209 
     25 C          24.4290   -0.9041   -5.9794 C.2       3 UNK         0.4942 
     26 O          24.3071    0.1101   -6.6649 O.2       3 UNK        -0.5208 
     27 CA         23.3996   -1.1920   -4.8748 C.3       3 UNK         0.0250 
     28 CB         22.3814   -2.2456   -5.3388 C.3       3 UNK        -0.1990 
     29 N          24.0233   -1.6227   -3.6212 N.am      3 UNK        -0.4232 
     30 C          24.8268   -0.8541   -2.8716 C.2       2 UNK         0.4993 
     31 O          25.1062    0.3145   -3.1391 O.2       2 UNK        -0.5286 
     32 CA         25.4727   -1.5219   -1.6468 C.3       2 UNK         0.0209 
     33 CB         24.5209   -1.4840   -0.4409 C.3       2 UNK        -0.1931 
     34 N          25.9091   -2.9028   -1.8904 N.am      2 UNK        -0.4546 
     35 C          26.8329   -3.2518   -2.7970 C.2       1 UNK         0.5154 
     36 O          27.3482   -2.4449   -3.5782 O.2       1 UNK        -0.5181 
     37 C          27.5885    2.2758   -5.0833 C.2       5 UNK         0.5014 
     38 O          28.2140    3.2023   -5.5999 O.2       5 UNK        -0.5248 
     39 N          26.2720    2.3147   -4.8236 N.am      6 UNK        -0.4434 
     40 CA         25.3914    3.4539   -5.0987 C.3       6 UNK         0.0363 
     41 CB         23.9960    3.1754   -4.5179 C.3       6 UNK        -0.1936 
     42 C          25.2948    3.8061   -6.5926 C.2       6 UNK         0.5081 
     43 O          25.2972    4.9883   -6.9367 O.2       6 UNK        -0.5248 
     44 N          25.2346    2.7811   -7.4529 N.am      7 UNK        -0.4718 
     45 CA         25.2340    2.9220   -8.9115 C.3       7 UNK         0.0273 
     46 CB         24.7259    1.6110   -9.5345 C.3       7 UNK        -0.1935 
     47 C          26.6101    3.2843   -9.5014 C.2       7 UNK         0.5018 
     48 O          26.6644    3.6957  -10.6611 O.2       7 UNK        -0.5186 
     49 N          27.6853    3.0891   -8.7207 N.am      8 UNK        -0.4240 
     50 CA         29.0998    3.1528   -9.1122 C.3       8 UNK         0.0235 
     51 CB         29.5149    4.5950   -9.4718 C.3       8 UNK        -0.2000 
     52 C          29.4404    2.1263  -10.2128 C.2       8 UNK         0.4941 
     53 O          30.2013    2.4276  -11.1343 O.2       8 UNK        -0.5273 
     54 N          28.8454    0.9318  -10.0996 N.am      9 UNK        -0.4262 
     55 CA         28.9576   -0.1650  -11.0617 C.3       9 UNK         0.0264 
     56 CB         27.6568   -0.9843  -11.0278 C.3       9 UNK        -0.1955 
     57 C          30.1683   -1.0732  -10.7929 C.2       9 UNK         0.5031 
     58 O          30.5546   -1.8331  -11.6825 O.2       9 UNK        -0.5390 
     59 N          30.7382   -0.9944   -9.5862 N.am      10 UNK        -0.4204 
     60 CA         31.8964   -1.7583   -9.1384 C.3       10 UNK         0.0237 
     61 CB         31.4307   -3.1122   -8.5686 C.3       10 UNK        -0.1985 
     62 C          32.6484   -0.9388   -8.0847 C.2       10 UNK         0.4970 
     63 O          32.0756   -0.0039   -7.5185 O.2       10 UNK        -0.4914 
     64 N          33.9023   -1.3314   -7.8265 N.am      11 UNK        -0.4285 
     65 CA         34.8023   -0.7611   -6.8046 C.3       11 UNK         0.1007 
     66 C          35.2528    0.7090   -7.0719 C.2       11 UNK         0.5703 
     67 N          35.1148    1.2323   -8.2846 N.am      11 UNK        -0.7361 
     68 O          35.7707    1.3779   -6.1802 O.2       11 UNK        -0.4986 
     69 C69        34.2865   -0.9775   -5.3506 C.3       12 UNK        -0.0947 
     70 S70        34.0064   -2.7382   -4.9503 S.3       12 UNK        -0.2240 
     71 C71        32.1899   -2.8530   -4.9575 C.3       12 UNK         0.0194 
     72 H72        29.8288   -4.7809   -5.9222 H         1 UNK         0.0906 
     73 H73        30.5858   -6.2484   -5.2854 H         1 UNK         0.0906 
     74 H74        29.3641   -6.3550   -6.5561 H         1 UNK         0.0906 
     75 H75        28.7729   -3.9839   -4.0321 H         1 UNK         0.3140 
     76 H76        26.3547   -5.2420   -3.2971 H         1 UNK         0.1085 
     77 H77        26.6351   -5.8068   -1.0893 H         1 UNK         0.0836 
     78 H78        28.1473   -6.3552   -1.7029 H         1 UNK         0.0836 
     79 H79        30.3537   -5.5409   -1.1289 H         1 UNK         0.0731 
     80 H80        30.7396   -4.5616    0.2635 H         1 UNK         0.0731 
     81 H81        31.3155   -4.6719   -3.1255 H         1 UNK         0.1312 
     82 H82        31.7120   -0.4498   -3.7573 H         1 UNK         0.1406 
     83 H83        29.9878   -1.9200   -0.1221 H         1 UNK         0.1631 
     84 H84        31.5915    0.7574   -0.9727 H         1 UNK         0.0717 
     85 H85        29.9321    0.4164   -0.5445 H         1 UNK         0.0717 
     86 H86        28.5398   -0.2426   -2.9370 H         1 UNK         0.0934 
     87 H87        27.6742    1.2239   -2.6346 H         1 UNK         0.0934 
     88 H88        29.3037    1.0020   -5.2116 H         1 UNK         0.0739 
     89 H89        27.3074   -0.8976   -4.6738 H         1 UNK         0.3093 
     90 H90        26.1540   -1.3873   -8.0132 H         1 UNK         0.0818 
     91 H91        26.7870   -3.7308   -7.4239 H         1 UNK         0.0819 
     92 H92        28.2018   -2.7797   -7.8434 H         1 UNK         0.0819 
     93 H93        27.8591   -3.1337   -6.1575 H         1 UNK         0.0819 
     94 H94        25.4899   -2.5591   -5.4722 H         1 UNK         0.3041 
     95 H95        22.8613   -0.2624   -4.6769 H         1 UNK         0.0784 
     96 H96        21.8951   -1.9349   -6.2647 H         1 UNK         0.0793 
     97 H97        22.8510   -3.2121   -5.5259 H         1 UNK         0.0793 
     98 H98        21.5962   -2.3916   -4.5967 H         1 UNK         0.0793 
     99 H99        23.8493   -2.5705   -3.3202 H         1 UNK         0.3024 
    100 H100       26.3617   -0.9383   -1.3963 H         1 UNK         0.1171 
    101 H101       24.1973   -0.4632   -0.2317 H         1 UNK         0.0786 
    102 H102       25.0082   -1.8577    0.4599 H         1 UNK         0.0786 
    103 H103       23.6248   -2.0818   -0.6114 H         1 UNK         0.0786 
    104 H104       25.5408   -3.6118   -1.2726 H         1 UNK         0.2977 
    105 H105       25.8429    1.5160   -4.3582 H         1 UNK         0.3127 
    106 H106       25.8086    4.3213   -4.5829 H         1 UNK         0.0770 
    107 H107       23.5399    2.2946   -4.9714 H         1 UNK         0.0814 
    108 H108       23.3249    4.0178   -4.6904 H         1 UNK         0.0814 
    109 H109       24.0404    3.0106   -3.4412 H         1 UNK         0.0814 
    110 H110       25.1567    1.8357   -7.0858 H         1 UNK         0.2983 
    111 H111       24.5422    3.7227   -9.1822 H         1 UNK         0.0947 
    112 H112       24.6841    1.6816  -10.6223 H         1 UNK         0.0806 
    113 H113       23.7213    1.3698   -9.1867 H         1 UNK         0.0806 
    114 H114       25.3760    0.7712   -9.2858 H         1 UNK         0.0806 
    115 H115       27.5189    2.7425   -7.7834 H         1 UNK         0.3000 
    116 H116       29.6700    2.8535   -8.2311 H         1 UNK         0.0850 
    117 H117       30.5913    4.6613   -9.6342 H         1 UNK         0.0810 
    118 H118       29.2648    5.2895   -8.6698 H         1 UNK         0.0810 
    119 H119       29.0275    4.9434  -10.3828 H         1 UNK         0.0810 
    120 H120       28.3041    0.7501   -9.2546 H         1 UNK         0.3040 
    121 H121       29.0728    0.2508  -12.0650 H         1 UNK         0.0766 
    122 H122       26.7901   -0.3626  -11.2533 H         1 UNK         0.0812 
    123 H123       27.4968   -1.4454  -10.0532 H         1 UNK         0.0812 
    124 H124       27.6810   -1.7860  -11.7672 H         1 UNK         0.0812 
    125 H125       30.4078   -0.3037   -8.9227 H         1 UNK         0.3205 
    126 H126       32.5702   -1.9258   -9.9816 H         1 UNK         0.0754 
    127 H127       32.2711   -3.6961   -8.1911 H         1 UNK         0.0769 
    128 H128       30.9386   -3.7139   -9.3330 H         1 UNK         0.0769 
    129 H129       30.7266   -2.9808   -7.7467 H         1 UNK         0.0769 
    130 H130       34.2862   -2.1040   -8.3510 H         1 UNK         0.2981 
    131 H131       35.7253   -1.3345   -6.8956 H         1 UNK         0.0541 
    132 H132       34.7058    0.6946   -9.0311 H         1 UNK         0.3459 
    133 H133       35.4203    2.1781   -8.4505 H         1 UNK         0.3459 
    134 H134       35.0150   -0.6061   -4.6282 H         1 UNK         0.0612 
    135 H135       33.3798   -0.3986   -5.1832 H         1 UNK         0.0612 
    136 H136       31.7648   -2.1585   -5.6803 H         1 UNK         0.0624 
    137 H137       31.9203   -3.8514   -5.3011 H         1 UNK         0.0624 
@<TRIPOS>BOND
     1    1    2 1    
     2    1   72 1    
     3    1   73 1    
     4    1   74 1    
     5    2    3 2    
     6    2    4 am   BACKBONE|DICT|INTERRES
     7    4    5 1    
     8    4   75 1    
     9    5    6 1    
    10    5   35 1    
    11    5   76 1    
    12    6    7 1    
    13    6   77 1    
    14    6   78 1    
    15    7    8 1    
    16    8    9 1    
    17    8   79 1    
    18    8   80 1    
    19    9   10 ar   
    20    9   14 ar   
    21   10   11 ar   
    22   10   81 1    
    23   11   12 ar   
    24   11   71 1    
    25   12   13 ar   
    26   12   82 1    
    27   13   14 ar   
    28   13   15 1    
    29   14   83 1    
    30   15   16 1    
    31   15   84 1    
    32   15   85 1    
    33   16   17 1    
    34   17   18 1    
    35   17   86 1    
    36   17   87 1    
    37   18   19 1    
    38   18   37 1    
    39   18   88 1    
    40   19   20 am   BACKBONE|DICT|INTERRES
    41   19   89 1    
    42   20   21 2    
    43   20   22 1    
    44   22   23 1    
    45   22   24 1    
    46   22   90 1    
    47   23   91 1    
    48   23   92 1    
    49   23   93 1    
    50   24   25 am   BACKBONE|DICT|INTERRES
    51   24   94 1    
    52   25   26 2    
    53   25   27 1    
    54   27   28 1    
    55   27   29 1    
    56   27   95 1    
    57   28   96 1    
    58   28   97 1    
    59   28   98 1    
    60   29   30 am   BACKBONE|DICT|INTERRES
    61   29   99 1    
    62   30   31 2    
    63   30   32 1    
    64   32   33 1    
    65   32   34 1    
    66   32  100 1    
    67   33  101 1    
    68   33  102 1    
    69   33  103 1    
    70   34   35 am   BACKBONE|DICT|INTERRES
    71   34  104 1    
    72   35   36 2    
    73   37   38 2    
    74   37   39 am   BACKBONE|DICT|INTERRES
    75   39   40 1    
    76   39  105 1    
    77   40   41 1    
    78   40   42 1    
    79   40  106 1    
    80   41  107 1    
    81   41  108 1    
    82   41  109 1    
    83   42   43 2    
    84   42   44 am   BACKBONE|DICT|INTERRES
    85   44   45 1    
    86   44  110 1    
    87   45   46 1    
    88   45   47 1    
    89   45  111 1    
    90   46  112 1    
    91   46  113 1    
    92   46  114 1    
    93   47   48 2    
    94   47   49 am   BACKBONE|DICT|INTERRES
    95   49   50 1    
    96   49  115 1    
    97   50   51 1    
    98   50   52 1    
    99   50  116 1    
   100   51  117 1    
   101   51  118 1    
   102   51  119 1    
   103   52   53 2    
   104   52   54 am   BACKBONE|DICT|INTERRES
   105   54   55 1    
   106   54  120 1    
   107   55   56 1    
   108   55   57 1    
   109   55  121 1    
   110   56  122 1    
   111   56  123 1    
   112   56  124 1    
   113   57   58 2    
   114   57   59 am   BACKBONE|DICT|INTERRES
   115   59   60 1    
   116   59  125 1    
   117   60   61 1    
   118   60   62 1    
   119   60  126 1    
   120   61  127 1    
   121   61  128 1    
   122   61  129 1    
   123   62   63 2    
   124   62   64 am   BACKBONE|DICT|INTERRES
   125   64   65 1    
   126   64  130 1    
   127   65   66 1    
   128   65   69 1    
   129   65  131 1    
   130   66   67 am   BACKBONE|DICT|INTERRES
   131   66   68 2    
   132   67  132 1    
   133   67  133 1    
   134   69   70 1    
   135   69  134 1    
   136   69  135 1    
   137   70   71 1    
   138   71  136 1    
   139   71  137 1    
@<TRIPOS>SUBSTRUCTURE
     1 UNK         1 GROUP             0       ****    0 ROOT    
