@<TRIPOS>MOLECULE
3R137
137   139    1
SMALL
USER_CHARGES


@<TRIPOS>ATOM
      1 CA         26.8286   -6.7019   -2.9848 C.3       0 UNK        -0.2020 
      2 C          26.8332   -5.3033   -2.3897 C.2       0 UNK         0.4855 
      3 O          26.7087   -4.3298   -3.1343 O.2       0 UNK        -0.5197 
      4 N          26.9534   -5.2005   -1.0572 N.am      1 UNK        -0.4892 
      5 CA         27.0547   -3.9885   -0.2211 C.3       1 UNK         0.0835 
      6 C6         28.3179   -3.1417   -0.5191 C.3       12 UNK        -0.0855 
      7 S7         29.8826   -3.9193    0.0243 S.3       12 UNK        -0.2931 
      8 C8         30.9892   -3.7659   -1.4341 C.3       12 UNK         0.0378 
      9 C9         31.1420   -2.3690   -2.0504 C.ar      12 UNK        -0.0802 
     10 C10        31.7532   -2.2520   -3.3029 C.ar      12 UNK        -0.0944 
     11 C11        31.7830   -1.0262   -3.9878 C.ar      12 UNK        -0.0787 
     12 C12        31.1923    0.0937   -3.3907 C.ar      12 UNK        -0.0862 
     13 C13        30.6044    0.0005   -2.1265 C.ar      12 UNK        -0.0733 
     14 C14        30.6415   -1.2148   -1.4429 C.ar      12 UNK        -0.0832 
     15 C15        29.8758    1.1795   -1.4963 C.3       12 UNK         0.0240 
     16 S16        28.1230    0.7612   -1.1792 S.3       12 UNK        -0.2522 
     17 C17        27.2126    1.6126   -2.5088 C.3       12 UNK        -0.0967 
     18 CA         27.6641    1.2878   -3.9543 C.3       5 UNK         0.0660 
     19 N          27.6117   -0.1391   -4.2959 N.am      5 UNK        -0.4015 
     20 C          28.2098   -0.6629   -5.3788 C.2       4 UNK         0.4946 
     21 O          28.9131   -0.0074   -6.1456 O.2       4 UNK        -0.5353 
     22 CA         27.9369   -2.1404   -5.7100 C.3       4 UNK         0.0277 
     23 CB         28.9466   -3.0656   -5.0240 C.3       4 UNK        -0.1981 
     24 N          26.5796   -2.5566   -5.3646 N.am      4 UNK        -0.4209 
     25 C          25.4861   -2.1292   -6.0102 C.2       3 UNK         0.4942 
     26 O          25.5198   -1.3648   -6.9734 O.2       3 UNK        -0.5208 
     27 CA         24.1255   -2.5924   -5.4670 C.3       3 UNK         0.0250 
     28 CB         23.7675   -3.9790   -6.0248 C.3       3 UNK        -0.1990 
     29 N          24.0644   -2.6238   -4.0038 N.am      3 UNK        -0.4232 
     30 C          24.2373   -1.5647   -3.1991 C.2       2 UNK         0.4993 
     31 O          24.4894   -0.4273   -3.5991 O.2       2 UNK        -0.5286 
     32 CA         24.1961   -1.8538   -1.6972 C.3       2 UNK         0.0209 
     33 CB         22.8059   -2.3307   -1.2347 C.3       2 UNK        -0.1931 
     34 N          25.2249   -2.8454   -1.4030 N.am      2 UNK        -0.4546 
     35 C          25.8069   -3.0720   -0.2255 C.2       1 UNK         0.5154 
     36 O          25.4252   -2.5637    0.8297 O.2       1 UNK        -0.5181 
     37 C          26.8558    2.1349   -4.9554 C.2       5 UNK         0.5014 
     38 O          27.3054    3.2234   -5.3127 O.2       5 UNK        -0.5248 
     39 N          25.6986    1.6233   -5.4047 N.am      6 UNK        -0.4434 
     40 CA         24.8740    2.2404   -6.4487 C.3       6 UNK         0.0363 
     41 CB         23.5165    1.5246   -6.5329 C.3       6 UNK        -0.1936 
     42 C          25.5748    2.2649   -7.8203 C.2       6 UNK         0.5081 
     43 O          25.4760    3.2649   -8.5317 O.2       6 UNK        -0.5248 
     44 N          26.2950    1.1833   -8.1512 N.am      7 UNK        -0.4718 
     45 CA         27.1641    1.0797   -9.3287 C.3       7 UNK         0.0273 
     46 CB         27.5472   -0.3918   -9.5342 C.3       7 UNK        -0.1935 
     47 C          28.4245    1.9622   -9.2353 C.2       7 UNK         0.5018 
     48 O          28.9702    2.3452  -10.2721 O.2       7 UNK        -0.5186 
     49 N          28.8551    2.2724   -8.0040 N.am      8 UNK        -0.4240 
     50 CA         29.9268    3.1948   -7.6243 C.3       8 UNK         0.0235 
     51 CB         29.4916    4.6541   -7.8890 C.3       8 UNK        -0.2000 
     52 C          31.2672    2.8106   -8.2699 C.2       8 UNK         0.4941 
     53 O          31.8531    1.8032   -7.8755 O.2       8 UNK        -0.5273 
     54 N          31.7153    3.5948   -9.2600 N.am      9 UNK        -0.4262 
     55 CA         32.9442    3.3717  -10.0246 C.3       9 UNK         0.0264 
     56 CB         33.1990    4.5814  -10.9384 C.3       9 UNK        -0.1955 
     57 C          32.9455    2.0680  -10.8436 C.2       9 UNK         0.5031 
     58 O          34.0232    1.5200  -11.0808 O.2       9 UNK        -0.5390 
     59 N          31.7615    1.5874  -11.2548 N.am      10 UNK        -0.4204 
     60 CA         31.6086    0.2997  -11.9374 C.3       10 UNK         0.0237 
     61 CB         30.2981    0.2870  -12.7406 C.3       10 UNK        -0.1985 
     62 C          31.6767   -0.8915  -10.9646 C.2       10 UNK         0.4970 
     63 O          32.1545   -1.9548  -11.3622 O.2       10 UNK        -0.4914 
     64 N          31.2243   -0.6850   -9.7185 N.am      11 UNK        -0.4285 
     65 CA         31.2117   -1.6613   -8.6186 C.3       11 UNK         0.1007 
     66 C          30.4303   -2.9764   -8.9426 C.2       11 UNK         0.5703 
     67 N          30.7015   -4.0743   -8.2511 N.am      11 UNK        -0.7361 
     68 O          29.5352   -3.0004   -9.7846 O.2       11 UNK        -0.4986 
     69 C69        32.6440   -1.8546   -8.0331 C.3       12 UNK        -0.0947 
     70 S70        32.6563   -2.4265   -6.3013 S.3       12 UNK        -0.2240 
     71 C71        32.3964   -0.8671   -5.3838 C.3       12 UNK         0.0194 
     72 H72        25.8928   -6.8803   -3.5137 H         1 UNK         0.0906 
     73 H73        27.6470   -6.8053   -3.6967 H         1 UNK         0.0906 
     74 H74        26.9419   -7.4723   -2.2224 H         1 UNK         0.0906 
     75 H75        27.0140   -6.0595   -0.5275 H         1 UNK         0.3140 
     76 H76        27.1385   -4.3510    0.8052 H         1 UNK         0.1085 
     77 H77        28.2544   -2.1879    0.0085 H         1 UNK         0.0836 
     78 H78        28.3690   -2.8929   -1.5797 H         1 UNK         0.0836 
     79 H79        30.6165   -4.4463   -2.2017 H         1 UNK         0.0731 
     80 H80        31.9778   -4.1312   -1.1533 H         1 UNK         0.0731 
     81 H81        32.1675   -3.1409   -3.7558 H         1 UNK         0.1312 
     82 H82        31.1712    1.0339   -3.9249 H         1 UNK         0.1406 
     83 H83        30.2080   -1.2576   -0.4561 H         1 UNK         0.1631 
     84 H84        29.9507    2.0766   -2.1119 H         1 UNK         0.0717 
     85 H85        30.3550    1.4200   -0.5463 H         1 UNK         0.0717 
     86 H86        26.1547    1.3755   -2.3805 H         1 UNK         0.0934 
     87 H87        27.2996    2.6850   -2.3213 H         1 UNK         0.0934 
     88 H88        28.7029    1.6044   -4.0585 H         1 UNK         0.0739 
     89 H89        27.0258   -0.7242   -3.7197 H         1 UNK         0.3093 
     90 H90        28.0563   -2.2649   -6.7881 H         1 UNK         0.0818 
     91 H91        28.9391   -2.9409   -3.9415 H         1 UNK         0.0819 
     92 H92        28.7445   -4.1137   -5.2445 H         1 UNK         0.0819 
     93 H93        29.9536   -2.8529   -5.3757 H         1 UNK         0.0819 
     94 H94        26.4865   -3.2047   -4.5847 H         1 UNK         0.3041 
     95 H95        23.3742   -1.8790   -5.8121 H         1 UNK         0.0784 
     96 H96        23.7932   -3.9787   -7.1155 H         1 UNK         0.0793 
     97 H97        24.4647   -4.7450   -5.6820 H         1 UNK         0.0793 
     98 H98        22.7631   -4.2801   -5.7265 H         1 UNK         0.0793 
     99 H99        23.8758   -3.5214   -3.5817 H         1 UNK         0.3024 
    100 H100       24.4429   -0.9259   -1.1754 H         1 UNK         0.1171 
    101 H101       22.7639   -2.4313   -0.1501 H         1 UNK         0.0786 
    102 H102       22.0335   -1.6159   -1.5214 H         1 UNK         0.0786 
    103 H103       22.5385   -3.2954   -1.6668 H         1 UNK         0.0786 
    104 H104       25.6572   -3.3074   -2.2035 H         1 UNK         0.2977 
    105 H105       25.3592    0.7543   -5.0025 H         1 UNK         0.3127 
    106 H106       24.6906    3.2760   -6.1545 H         1 UNK         0.0770 
    107 H107       23.6231    0.4851   -6.8416 H         1 UNK         0.0814 
    108 H108       22.8650    2.0132   -7.2585 H         1 UNK         0.0814 
    109 H109       23.0006    1.5370   -5.5725 H         1 UNK         0.0814 
    110 H110       26.2370    0.3633   -7.5528 H         1 UNK         0.2983 
    111 H111       26.5963    1.4131  -10.2000 H         1 UNK         0.0947 
    112 H112       28.1523   -0.5245  -10.4304 H         1 UNK         0.0806 
    113 H113       26.6645   -1.0217   -9.6455 H         1 UNK         0.0806 
    114 H114       28.1241   -0.7747   -8.6931 H         1 UNK         0.0806 
    115 H115       28.4134    1.7910   -7.2295 H         1 UNK         0.3000 
    116 H116       30.0620    3.0793   -6.5476 H         1 UNK         0.0850 
    117 H117       30.2677    5.3599   -7.5900 H         1 UNK         0.0810 
    118 H118       28.6002    4.8990   -7.3106 H         1 UNK         0.0810 
    119 H119       29.2560    4.8359   -8.9382 H         1 UNK         0.0810 
    120 H120       31.1486    4.3857   -9.5305 H         1 UNK         0.3040 
    121 H121       33.7666    3.3043   -9.3092 H         1 UNK         0.0766 
    122 H122       34.1251    4.4564  -11.5015 H         1 UNK         0.0812 
    123 H123       33.2950    5.5021  -10.3626 H         1 UNK         0.0812 
    124 H124       32.3942    4.7182  -11.6619 H         1 UNK         0.0812 
    125 H125       30.9105    2.0844  -11.0083 H         1 UNK         0.3205 
    126 H126       32.4292    0.1841  -12.6492 H         1 UNK         0.0754 
    127 H127       29.4275    0.4417  -12.1052 H         1 UNK         0.0769 
    128 H128       30.1632   -0.6669  -13.2525 H         1 UNK         0.0769 
    129 H129       30.2956    1.0663  -13.5028 H         1 UNK         0.0769 
    130 H130       30.8944    0.2371   -9.4745 H         1 UNK         0.2981 
    131 H131       30.6081   -1.1749   -7.8533 H         1 UNK         0.0541 
    132 H132       31.4169   -4.0586   -7.5394 H         1 UNK         0.3459 
    133 H133       30.1908   -4.9209   -8.4438 H         1 UNK         0.3459 
    134 H134       33.1952   -0.9128   -8.0659 H         1 UNK         0.0612 
    135 H135       33.2165   -2.5551   -8.6432 H         1 UNK         0.0612 
    136 H136       31.7452   -0.2230   -5.9764 H         1 UNK         0.0624 
    137 H137       33.3512   -0.3474   -5.2978 H         1 UNK         0.0624 
@<TRIPOS>BOND
     1    1    2 1    
     2    1   72 1    
     3    1   73 1    
     4    1   74 1    
     5    2    3 2    
     6    2    4 am   BACKBONE|DICT|INTERRES
     7    4    5 1    
     8    4   75 1    
     9    5    6 1    
    10    5   35 1    
    11    5   76 1    
    12    6    7 1    
    13    6   77 1    
    14    6   78 1    
    15    7    8 1    
    16    8    9 1    
    17    8   79 1    
    18    8   80 1    
    19    9   10 ar   
    20    9   14 ar   
    21   10   11 ar   
    22   10   81 1    
    23   11   12 ar   
    24   11   71 1    
    25   12   13 ar   
    26   12   82 1    
    27   13   14 ar   
    28   13   15 1    
    29   14   83 1    
    30   15   16 1    
    31   15   84 1    
    32   15   85 1    
    33   16   17 1    
    34   17   18 1    
    35   17   86 1    
    36   17   87 1    
    37   18   19 1    
    38   18   37 1    
    39   18   88 1    
    40   19   20 am   BACKBONE|DICT|INTERRES
    41   19   89 1    
    42   20   21 2    
    43   20   22 1    
    44   22   23 1    
    45   22   24 1    
    46   22   90 1    
    47   23   91 1    
    48   23   92 1    
    49   23   93 1    
    50   24   25 am   BACKBONE|DICT|INTERRES
    51   24   94 1    
    52   25   26 2    
    53   25   27 1    
    54   27   28 1    
    55   27   29 1    
    56   27   95 1    
    57   28   96 1    
    58   28   97 1    
    59   28   98 1    
    60   29   30 am   BACKBONE|DICT|INTERRES
    61   29   99 1    
    62   30   31 2    
    63   30   32 1    
    64   32   33 1    
    65   32   34 1    
    66   32  100 1    
    67   33  101 1    
    68   33  102 1    
    69   33  103 1    
    70   34   35 am   BACKBONE|DICT|INTERRES
    71   34  104 1    
    72   35   36 2    
    73   37   38 2    
    74   37   39 am   BACKBONE|DICT|INTERRES
    75   39   40 1    
    76   39  105 1    
    77   40   41 1    
    78   40   42 1    
    79   40  106 1    
    80   41  107 1    
    81   41  108 1    
    82   41  109 1    
    83   42   43 2    
    84   42   44 am   BACKBONE|DICT|INTERRES
    85   44   45 1    
    86   44  110 1    
    87   45   46 1    
    88   45   47 1    
    89   45  111 1    
    90   46  112 1    
    91   46  113 1    
    92   46  114 1    
    93   47   48 2    
    94   47   49 am   BACKBONE|DICT|INTERRES
    95   49   50 1    
    96   49  115 1    
    97   50   51 1    
    98   50   52 1    
    99   50  116 1    
   100   51  117 1    
   101   51  118 1    
   102   51  119 1    
   103   52   53 2    
   104   52   54 am   BACKBONE|DICT|INTERRES
   105   54   55 1    
   106   54  120 1    
   107   55   56 1    
   108   55   57 1    
   109   55  121 1    
   110   56  122 1    
   111   56  123 1    
   112   56  124 1    
   113   57   58 2    
   114   57   59 am   BACKBONE|DICT|INTERRES
   115   59   60 1    
   116   59  125 1    
   117   60   61 1    
   118   60   62 1    
   119   60  126 1    
   120   61  127 1    
   121   61  128 1    
   122   61  129 1    
   123   62   63 2    
   124   62   64 am   BACKBONE|DICT|INTERRES
   125   64   65 1    
   126   64  130 1    
   127   65   66 1    
   128   65   69 1    
   129   65  131 1    
   130   66   67 am   BACKBONE|DICT|INTERRES
   131   66   68 2    
   132   67  132 1    
   133   67  133 1    
   134   69   70 1    
   135   69  134 1    
   136   69  135 1    
   137   70   71 1    
   138   71  136 1    
   139   71  137 1    
@<TRIPOS>SUBSTRUCTURE
     1 UNK         1 GROUP             0       ****    0 ROOT    
