@<TRIPOS>MOLECULE
3R137
137   139    1
SMALL
USER_CHARGES


@<TRIPOS>ATOM
      1 CA         26.6145   -6.4035   -4.5157 C.3       0 UNK        -0.2020 
      2 C          26.5873   -5.0874   -3.7548 C.2       0 UNK         0.4855 
      3 O          26.9111   -4.0482   -4.3295 O.2       0 UNK        -0.5197 
      4 N          26.2038   -5.1242   -2.4700 N.am      1 UNK        -0.4892 
      5 CA         26.1030   -3.9702   -1.5621 C.3       1 UNK         0.0835 
      6 C6         27.4908   -3.3605   -1.2100 C.3       12 UNK        -0.0855 
      7 S7         28.6574   -4.5331   -0.4355 S.3       12 UNK        -0.2931 
      8 C8         29.9335   -4.7303   -1.7340 C.3       12 UNK         0.0378 
      9 C9         30.8380   -3.5216   -2.0071 C.ar      12 UNK        -0.0802 
     10 C10        31.9623   -3.7091   -2.8190 C.ar      12 UNK        -0.0944 
     11 C11        32.7906   -2.6355   -3.1645 C.ar      12 UNK        -0.0787 
     12 C12        32.4855   -1.3548   -2.6967 C.ar      12 UNK        -0.0862 
     13 C13        31.3737   -1.1491   -1.8770 C.ar      12 UNK        -0.0733 
     14 C14        30.5729   -2.2350   -1.5179 C.ar      12 UNK        -0.0832 
     15 C15        31.0195    0.2444   -1.3803 C.3       12 UNK         0.0240 
     16 S16        29.6415    0.9600   -2.3331 S.3       12 UNK        -0.2522 
     17 C17        30.5068    1.4960   -3.8513 C.3       12 UNK        -0.0967 
     18 CA         29.5855    1.6729   -5.0846 C.3       5 UNK         0.0660 
     19 N          28.8976    0.4247   -5.4380 N.am      5 UNK        -0.4015 
     20 C          29.2727   -0.3666   -6.4551 C.2       4 UNK         0.4946 
     21 O          30.0577   -0.0358   -7.3457 O.2       4 UNK        -0.5353 
     22 CA         28.7048   -1.7916   -6.4969 C.3       4 UNK         0.0277 
     23 CB         29.5492   -2.7154   -5.6043 C.3       4 UNK        -0.1981 
     24 N          27.2932   -1.9018   -6.1361 N.am      4 UNK        -0.4209 
     25 C          26.2954   -1.2872   -6.7851 C.2       3 UNK         0.4942 
     26 O          26.4654   -0.4959   -7.7131 O.2       3 UNK        -0.5208 
     27 CA         24.8694   -1.5749   -6.2875 C.3       3 UNK         0.0250 
     28 CB         24.3988   -2.9640   -6.7464 C.3       3 UNK        -0.1990 
     29 N          24.7247   -1.4547   -4.8352 N.am      3 UNK        -0.4232 
     30 C          25.0425   -0.3729   -4.1133 C.2       2 UNK         0.4993 
     31 O          25.5338    0.6461   -4.5983 O.2       2 UNK        -0.5286 
     32 CA         24.8227   -0.4416   -2.5934 C.3       2 UNK         0.0209 
     33 CB         23.3347   -0.2855   -2.2243 C.3       2 UNK        -0.1931 
     34 N          25.4386   -1.6258   -1.9795 N.am      2 UNK        -0.4546 
     35 C          25.1047   -2.9193   -2.1143 C.2       1 UNK         0.5154 
     36 O          24.0806   -3.2986   -2.6897 O.2       1 UNK        -0.5181 
     37 C          28.6652    2.9010   -4.9393 C.2       5 UNK         0.5014 
     38 O          29.1228    4.0013   -5.2515 O.2       5 UNK        -0.5248 
     39 N          27.4116    2.7368   -4.4881 N.am      6 UNK        -0.4434 
     40 CA         26.4632    3.8481   -4.3344 C.3       6 UNK         0.0363 
     41 CB         25.4646    3.5661   -3.1981 C.3       6 UNK        -0.1936 
     42 C          25.7431    4.1242   -5.6602 C.2       6 UNK         0.5081 
     43 O          25.6587    5.2807   -6.0738 O.2       6 UNK        -0.5248 
     44 N          25.2947    3.0540   -6.3340 N.am      7 UNK        -0.4718 
     45 CA         24.8424    3.1076   -7.7305 C.3       7 UNK         0.0273 
     46 CB         23.8729    1.9501   -8.0110 C.3       7 UNK        -0.1935 
     47 C          26.0248    3.0872   -8.7205 C.2       7 UNK         0.5018 
     48 O          25.8386    3.4453   -9.8837 O.2       7 UNK        -0.5186 
     49 N          27.2101    2.6903   -8.2302 N.am      8 UNK        -0.4240 
     50 CA         28.5097    2.6610   -8.9086 C.3       8 UNK         0.0235 
     51 CB         28.9737    4.0902   -9.2616 C.3       8 UNK        -0.2000 
     52 C          28.5541    1.6950  -10.1068 C.2       8 UNK         0.4941 
     53 O          29.1764    2.0083  -11.1237 O.2       8 UNK        -0.5273 
     54 N          27.9006    0.5320   -9.9731 N.am      9 UNK        -0.4262 
     55 CA         27.8492   -0.5008  -11.0099 C.3       9 UNK         0.0264 
     56 CB         26.6388   -1.4161  -10.7582 C.3       9 UNK        -0.1955 
     57 C          29.1367   -1.3381  -11.1186 C.2       9 UNK         0.5031 
     58 O          29.2863   -2.0497  -12.1141 O.2       9 UNK        -0.5390 
     59 N          30.0259   -1.2759  -10.1172 N.am      10 UNK        -0.4204 
     60 CA         31.2527   -2.0665  -10.0603 C.3       10 UNK         0.0237 
     61 CB         30.9580   -3.4545   -9.4437 C.3       10 UNK        -0.1985 
     62 C          32.3634   -1.2693   -9.3581 C.2       10 UNK         0.4970 
     63 O          32.6897   -0.1676   -9.8008 O.2       10 UNK        -0.4914 
     64 N          32.9501   -1.8623   -8.3146 N.am      11 UNK        -0.4285 
     65 CA         34.1249   -1.3957   -7.5654 C.3       11 UNK         0.1007 
     66 C          33.9499   -0.1118   -6.7008 C.2       11 UNK         0.5703 
     67 N          32.7705    0.4821   -6.5882 N.am      11 UNK        -0.7361 
     68 O          34.9235    0.3722   -6.1283 O.2       11 UNK        -0.4986 
     69 C69        34.7539   -2.5702   -6.7654 C.3       12 UNK        -0.0947 
     70 S70        33.5490   -3.4385   -5.7001 S.3       12 UNK        -0.2240 
     71 C71        34.0148   -2.8544   -4.0419 C.3       12 UNK         0.0194 
     72 H72        26.3229   -7.2452   -3.8879 H         1 UNK         0.0906 
     73 H73        25.9322   -6.3582   -5.3640 H         1 UNK         0.0906 
     74 H74        27.6181   -6.5937   -4.8951 H         1 UNK         0.0906 
     75 H75        25.9242   -6.0076   -2.0672 H         1 UNK         0.3140 
     76 H76        25.6565   -4.3414   -0.6383 H         1 UNK         0.1085 
     77 H77        27.3798   -2.5447   -0.4937 H         1 UNK         0.0836 
     78 H78        27.9451   -2.9315   -2.1052 H         1 UNK         0.0836 
     79 H79        29.4424   -5.0140   -2.6657 H         1 UNK         0.0731 
     80 H80        30.5607   -5.5766   -1.4500 H         1 UNK         0.0731 
     81 H81        32.1882   -4.6952   -3.2021 H         1 UNK         0.1312 
     82 H82        33.1122   -0.5174   -2.9718 H         1 UNK         0.1406 
     83 H83        29.7306   -2.0487   -0.8711 H         1 UNK         0.1631 
     84 H84        31.8840    0.9087   -1.4261 H         1 UNK         0.0717 
     85 H85        30.7311    0.1923   -0.3293 H         1 UNK         0.0717 
     86 H86        31.0476    2.4201   -3.6370 H         1 UNK         0.0934 
     87 H87        31.2723    0.7590   -4.0937 H         1 UNK         0.0934 
     88 H88        30.2463    1.9443   -5.9104 H         1 UNK         0.0739 
     89 H89        28.2366    0.0628   -4.7665 H         1 UNK         0.3093 
     90 H90        28.7924   -2.1415   -7.5266 H         1 UNK         0.0818 
     91 H91        30.6113   -2.6249   -5.8351 H         1 UNK         0.0819 
     92 H92        29.4276   -2.4776   -4.5465 H         1 UNK         0.0819 
     93 H93        29.2767   -3.7615   -5.7440 H         1 UNK         0.0819 
     94 H94        27.0630   -2.5727   -5.4030 H         1 UNK         0.3041 
     95 H95        24.2055   -0.8346   -6.7335 H         1 UNK         0.0784 
     96 H96        24.4849   -3.0668   -7.8291 H         1 UNK         0.0793 
     97 H97        24.9883   -3.7623   -6.2944 H         1 UNK         0.0793 
     98 H98        23.3535   -3.1334   -6.4875 H         1 UNK         0.0793 
     99 H99        24.3697   -2.2619   -4.3309 H         1 UNK         0.3024 
    100 H100       25.3485    0.4159   -2.1691 H         1 UNK         0.1171 
    101 H101       23.1920   -0.2949   -1.1438 H         1 UNK         0.0786 
    102 H102       22.9438    0.6634   -2.5943 H         1 UNK         0.0786 
    103 H103       22.7155   -1.0747   -2.6511 H         1 UNK         0.0786 
    104 H104       26.3020   -1.4315   -1.4924 H         1 UNK         0.2977 
    105 H105       27.0346    1.8103   -4.3169 H         1 UNK         0.3127 
    106 H106       27.0142    4.7499   -4.0577 H         1 UNK         0.0770 
    107 H107       24.7604    2.7733   -3.4468 H         1 UNK         0.0814 
    108 H108       24.8732    4.4564   -2.9813 H         1 UNK         0.0814 
    109 H109       25.9774    3.2866   -2.2778 H         1 UNK         0.0814 
    110 H110       25.3611    2.1395   -5.8942 H         1 UNK         0.2983 
    111 H111       24.2993    4.0422   -7.8884 H         1 UNK         0.0947 
    112 H112       23.3925    2.0784   -8.9817 H         1 UNK         0.0806 
    113 H113       23.0835    1.8936   -7.2614 H         1 UNK         0.0806 
    114 H114       24.3882    0.9930   -8.0374 H         1 UNK         0.0806 
    115 H115       27.2112    2.3815   -7.2697 H         1 UNK         0.3000 
    116 H116       29.2223    2.2695   -8.1839 H         1 UNK         0.0850 
    117 H117       29.9962    4.0868   -9.6412 H         1 UNK         0.0810 
    118 H118       28.9577    4.7383   -8.3850 H         1 UNK         0.0810 
    119 H119       28.3438    4.5435  -10.0276 H         1 UNK         0.0810 
    120 H120       27.4024    0.3279   -9.1078 H         1 UNK         0.3040 
    121 H121       27.6995   -0.0084  -11.9732 H         1 UNK         0.0766 
    122 H122       25.7187   -0.8418  -10.6474 H         1 UNK         0.0812 
    123 H123       26.7696   -2.0198   -9.8597 H         1 UNK         0.0812 
    124 H124       26.4933   -2.1055  -11.5908 H         1 UNK         0.0812 
    125 H125       29.8759   -0.6341   -9.3442 H         1 UNK         0.3205 
    126 H126       31.6183   -2.2263  -11.0769 H         1 UNK         0.0754 
    127 H127       31.8425   -4.0929   -9.4608 H         1 UNK         0.0769 
    128 H128       30.1860   -3.9779  -10.0082 H         1 UNK         0.0769 
    129 H129       30.6156   -3.3830   -8.4115 H         1 UNK         0.0769 
    130 H130       32.5859   -2.7513   -8.0062 H         1 UNK         0.2981 
    131 H131       34.8599   -1.1079   -8.3192 H         1 UNK         0.0541 
    132 H132       31.9430    0.1254   -7.0552 H         1 UNK         0.3459 
    133 H133       32.7142    1.3273   -6.0471 H         1 UNK         0.3459 
    134 H134       35.6174   -2.2445   -6.1829 H         1 UNK         0.0612 
    135 H135       35.1471   -3.3073   -7.4672 H         1 UNK         0.0612 
    136 H136       34.6731   -3.5886   -3.5760 H         1 UNK         0.0624 
    137 H137       34.5891   -1.9303   -4.1215 H         1 UNK         0.0624 
@<TRIPOS>BOND
     1    1    2 1    
     2    1   72 1    
     3    1   73 1    
     4    1   74 1    
     5    2    3 2    
     6    2    4 am   BACKBONE|DICT|INTERRES
     7    4    5 1    
     8    4   75 1    
     9    5    6 1    
    10    5   35 1    
    11    5   76 1    
    12    6    7 1    
    13    6   77 1    
    14    6   78 1    
    15    7    8 1    
    16    8    9 1    
    17    8   79 1    
    18    8   80 1    
    19    9   10 ar   
    20    9   14 ar   
    21   10   11 ar   
    22   10   81 1    
    23   11   12 ar   
    24   11   71 1    
    25   12   13 ar   
    26   12   82 1    
    27   13   14 ar   
    28   13   15 1    
    29   14   83 1    
    30   15   16 1    
    31   15   84 1    
    32   15   85 1    
    33   16   17 1    
    34   17   18 1    
    35   17   86 1    
    36   17   87 1    
    37   18   19 1    
    38   18   37 1    
    39   18   88 1    
    40   19   20 am   BACKBONE|DICT|INTERRES
    41   19   89 1    
    42   20   21 2    
    43   20   22 1    
    44   22   23 1    
    45   22   24 1    
    46   22   90 1    
    47   23   91 1    
    48   23   92 1    
    49   23   93 1    
    50   24   25 am   BACKBONE|DICT|INTERRES
    51   24   94 1    
    52   25   26 2    
    53   25   27 1    
    54   27   28 1    
    55   27   29 1    
    56   27   95 1    
    57   28   96 1    
    58   28   97 1    
    59   28   98 1    
    60   29   30 am   BACKBONE|DICT|INTERRES
    61   29   99 1    
    62   30   31 2    
    63   30   32 1    
    64   32   33 1    
    65   32   34 1    
    66   32  100 1    
    67   33  101 1    
    68   33  102 1    
    69   33  103 1    
    70   34   35 am   BACKBONE|DICT|INTERRES
    71   34  104 1    
    72   35   36 2    
    73   37   38 2    
    74   37   39 am   BACKBONE|DICT|INTERRES
    75   39   40 1    
    76   39  105 1    
    77   40   41 1    
    78   40   42 1    
    79   40  106 1    
    80   41  107 1    
    81   41  108 1    
    82   41  109 1    
    83   42   43 2    
    84   42   44 am   BACKBONE|DICT|INTERRES
    85   44   45 1    
    86   44  110 1    
    87   45   46 1    
    88   45   47 1    
    89   45  111 1    
    90   46  112 1    
    91   46  113 1    
    92   46  114 1    
    93   47   48 2    
    94   47   49 am   BACKBONE|DICT|INTERRES
    95   49   50 1    
    96   49  115 1    
    97   50   51 1    
    98   50   52 1    
    99   50  116 1    
   100   51  117 1    
   101   51  118 1    
   102   51  119 1    
   103   52   53 2    
   104   52   54 am   BACKBONE|DICT|INTERRES
   105   54   55 1    
   106   54  120 1    
   107   55   56 1    
   108   55   57 1    
   109   55  121 1    
   110   56  122 1    
   111   56  123 1    
   112   56  124 1    
   113   57   58 2    
   114   57   59 am   BACKBONE|DICT|INTERRES
   115   59   60 1    
   116   59  125 1    
   117   60   61 1    
   118   60   62 1    
   119   60  126 1    
   120   61  127 1    
   121   61  128 1    
   122   61  129 1    
   123   62   63 2    
   124   62   64 am   BACKBONE|DICT|INTERRES
   125   64   65 1    
   126   64  130 1    
   127   65   66 1    
   128   65   69 1    
   129   65  131 1    
   130   66   67 am   BACKBONE|DICT|INTERRES
   131   66   68 2    
   132   67  132 1    
   133   67  133 1    
   134   69   70 1    
   135   69  134 1    
   136   69  135 1    
   137   70   71 1    
   138   71  136 1    
   139   71  137 1    
@<TRIPOS>SUBSTRUCTURE
     1 UNK         1 GROUP             0       ****    0 ROOT    
