@<TRIPOS>MOLECULE
3R137
137   139    1
SMALL
USER_CHARGES


@<TRIPOS>ATOM
      1 CA         29.6883    1.2254   -2.4171 C.3       0 UNK        -0.2020 
      2 C          29.1472    0.1630   -1.4734 C.2       0 UNK         0.4855 
      3 O          28.5889    0.4954   -0.4277 O.2       0 UNK        -0.5197 
      4 N          29.3075   -1.1118   -1.8521 N.am      1 UNK        -0.4892 
      5 CA         28.8532   -2.3105   -1.1265 C.3       1 UNK         0.0835 
      6 C6         29.6541   -2.6138    0.1665 C.3       12 UNK        -0.0855 
      7 S7         31.4351   -2.8666   -0.1372 S.3       12 UNK        -0.2931 
      8 C8         31.4711   -4.5604   -0.8173 C.3       12 UNK         0.0378 
      9 C9         31.5840   -4.5488   -2.3364 C.ar      12 UNK        -0.0802 
     10 C10        32.8053   -4.2205   -2.9305 C.ar      12 UNK        -0.0944 
     11 C11        32.9432   -4.2136   -4.3202 C.ar      12 UNK        -0.0787 
     12 C12        31.8398   -4.5285   -5.1192 C.ar      12 UNK        -0.0862 
     13 C13        30.5974   -4.8139   -4.5439 C.ar      12 UNK        -0.0733 
     14 C14        30.4887   -4.8647   -3.1493 C.ar      12 UNK        -0.0832 
     15 C15        29.3880   -5.0848   -5.4369 C.3       12 UNK         0.0240 
     16 S16        27.9149   -4.0937   -4.9958 S.3       12 UNK        -0.2522 
     17 C17        28.3899   -2.3902   -5.4606 C.3       12 UNK        -0.0967 
     18 CA         27.6278   -1.8213   -6.6913 C.3       5 UNK         0.0660 
     19 N          26.1807   -2.0357   -6.6244 N.am      5 UNK        -0.4015 
     20 C          25.3656   -2.0764   -7.6872 C.2       4 UNK         0.4946 
     21 O          25.7534   -2.0023   -8.8534 O.2       4 UNK        -0.5353 
     22 CA         23.8573   -2.2196   -7.4100 C.3       4 UNK         0.0277 
     23 CB         23.4551   -3.7032   -7.3919 C.3       4 UNK        -0.1981 
     24 N          23.4263   -1.5854   -6.1608 N.am      4 UNK        -0.4209 
     25 C          23.4452   -0.2642   -5.9326 C.2       3 UNK         0.4942 
     26 O          23.8019    0.5690   -6.7633 O.2       3 UNK        -0.5208 
     27 CA         23.0576    0.2026   -4.5174 C.3       3 UNK         0.0250 
     28 CB         21.5331    0.3582   -4.3999 C.3       3 UNK        -0.1990 
     29 N          23.5500   -0.6679   -3.4410 N.am      3 UNK        -0.4232 
     30 C          24.8317   -1.0154   -3.2644 C.2       2 UNK         0.4993 
     31 O          25.7461   -0.6702   -4.0207 O.2       2 UNK        -0.5286 
     32 CA         25.1484   -1.9379   -2.0841 C.3       2 UNK         0.0209 
     33 CB         24.5841   -3.3530   -2.3150 C.3       2 UNK        -0.1931 
     34 N          26.5992   -1.9969   -1.9794 N.am      2 UNK        -0.4546 
     35 C          27.3239   -2.3468   -0.9167 C.2       1 UNK         0.5154 
     36 O          26.8357   -2.6910    0.1617 O.2       1 UNK        -0.5181 
     37 C          27.9065   -0.3146   -6.8702 C.2       5 UNK         0.5014 
     38 O          28.6395    0.0725   -7.7794 O.2       5 UNK        -0.5248 
     39 N          27.2807    0.5115   -6.0163 N.am      6 UNK        -0.4434 
     40 CA         27.4182    1.9702   -5.9682 C.3       6 UNK         0.0363 
     41 CB         26.6433    2.5102   -4.7564 C.3       6 UNK        -0.1936 
     42 C          26.9763    2.6930   -7.2518 C.2       6 UNK         0.5081 
     43 O          27.5254    3.7501   -7.5619 O.2       6 UNK        -0.5248 
     44 N          26.0237    2.1078   -7.9930 N.am      7 UNK        -0.4718 
     45 CA         25.5871    2.5647   -9.3175 C.3       7 UNK         0.0273 
     46 CB         24.3962    1.7122   -9.7842 C.3       7 UNK        -0.1935 
     47 C          26.7017    2.5483  -10.3809 C.2       7 UNK         0.5018 
     48 O          26.6250    3.3173  -11.3397 O.2       7 UNK        -0.5186 
     49 N          27.7213    1.7034  -10.1840 N.am      8 UNK        -0.4240 
     50 CA         28.9370    1.6420  -10.9865 C.3       8 UNK         0.0235 
     51 CB         29.1015    0.2138  -11.5316 C.3       8 UNK        -0.2000 
     52 C          30.1091    2.1198  -10.1154 C.2       8 UNK         0.4941 
     53 O          31.0126    1.3454   -9.7873 O.2       8 UNK        -0.5273 
     54 N          30.0391    3.3996   -9.7237 N.am      9 UNK        -0.4262 
     55 CA         30.9905    4.1869   -8.9277 C.3       9 UNK         0.0264 
     56 CB         32.3573    4.2948   -9.6325 C.3       9 UNK        -0.1955 
     57 C          31.1603    3.7369   -7.4655 C.2       9 UNK         0.5031 
     58 O          31.1158    4.5857   -6.5737 O.2       9 UNK        -0.5390 
     59 N          31.3674    2.4360   -7.2429 N.am      10 UNK        -0.4204 
     60 CA         31.5980    1.8221   -5.9349 C.3       10 UNK         0.0237 
     61 CB         32.9657    2.2345   -5.3525 C.3       10 UNK        -0.1985 
     62 C          31.4989    0.2957   -6.0022 C.2       10 UNK         0.4970 
     63 O          30.9243   -0.2946   -5.0870 O.2       10 UNK        -0.4914 
     64 N          32.0698   -0.3068   -7.0555 N.am      11 UNK        -0.4285 
     65 CA         32.1601   -1.7655   -7.2285 C.3       11 UNK         0.1007 
     66 C          31.4582   -2.3105   -8.5001 C.2       11 UNK         0.5703 
     67 N          31.0384   -1.4906   -9.4498 N.am      11 UNK        -0.7361 
     68 O          31.2811   -3.5197   -8.6244 O.2       11 UNK        -0.4986 
     69 C69        33.6308   -2.2591   -7.1699 C.3       12 UNK        -0.0947 
     70 S70        34.3603   -2.1358   -5.5033 S.3       12 UNK        -0.2240 
     71 C71        34.2882   -3.8705   -4.9460 C.3       12 UNK         0.0194 
     72 H72        29.4351    2.2252   -2.0650 H         1 UNK         0.0906 
     73 H73        29.2655    1.1012   -3.4136 H         1 UNK         0.0906 
     74 H74        30.7734    1.1540   -2.4913 H         1 UNK         0.0906 
     75 H75        29.8150   -1.2959   -2.7082 H         1 UNK         0.3140 
     76 H76        29.0291   -3.1347   -1.8103 H         1 UNK         0.1085 
     77 H77        29.2689   -3.5040    0.6677 H         1 UNK         0.0836 
     78 H78        29.5392   -1.7967    0.8806 H         1 UNK         0.0836 
     79 H79        32.3331   -5.0841   -0.4010 H         1 UNK         0.0731 
     80 H80        30.5939   -5.1229   -0.4945 H         1 UNK         0.0731 
     81 H81        33.6517   -3.9709   -2.3050 H         1 UNK         0.1312 
     82 H82        31.9458   -4.5337   -6.1947 H         1 UNK         0.1406 
     83 H83        29.5420   -5.1353   -2.7025 H         1 UNK         0.1631 
     84 H84        29.1313   -6.1420   -5.3605 H         1 UNK         0.0717 
     85 H85        29.6283   -4.9016   -6.4857 H         1 UNK         0.0717 
     86 H86        28.2328   -1.7617   -4.5837 H         1 UNK         0.0934 
     87 H87        29.4621   -2.3665   -5.6491 H         1 UNK         0.0934 
     88 H88        28.0095   -2.3349   -7.5768 H         1 UNK         0.0739 
     89 H89        25.7785   -2.0507   -5.6972 H         1 UNK         0.3093 
     90 H90        23.3276   -1.7311   -8.2310 H         1 UNK         0.0818 
     91 H91        23.7402   -4.1952   -8.3231 H         1 UNK         0.0819 
     92 H92        23.9384   -4.2442   -6.5772 H         1 UNK         0.0819 
     93 H93        22.3769   -3.8219   -7.2829 H         1 UNK         0.0819 
     94 H94        23.1152   -2.1954   -5.4190 H         1 UNK         0.3041 
     95 H95        23.5087    1.1851   -4.3674 H         1 UNK         0.0784 
     96 H96        21.1469    1.0153   -5.1807 H         1 UNK         0.0793 
     97 H97        21.0189   -0.5990   -4.4958 H         1 UNK         0.0793 
     98 H98        21.2511    0.7973   -3.4427 H         1 UNK         0.0793 
     99 H99        22.8608   -1.0015   -2.7820 H         1 UNK         0.3024 
    100 H100       24.7334   -1.5026   -1.1722 H         1 UNK         0.1171 
    101 H101       23.4968   -3.3400   -2.3974 H         1 UNK         0.0786 
    102 H102       24.9784   -3.7991   -3.2293 H         1 UNK         0.0786 
    103 H103       24.8325   -4.0187   -1.4882 H         1 UNK         0.0786 
    104 H104       27.0692   -1.6424   -2.8029 H         1 UNK         0.2977 
    105 H105       26.6756    0.0992   -5.3058 H         1 UNK         0.3127 
    106 H106       28.4772    2.1896   -5.8242 H         1 UNK         0.0770 
    107 H107       25.5730    2.3287   -4.8553 H         1 UNK         0.0814 
    108 H108       26.7839    3.5868   -4.6517 H         1 UNK         0.0814 
    109 H109       26.9756    2.0470   -3.8275 H         1 UNK         0.0814 
    110 H110       25.5488    1.2943   -7.6152 H         1 UNK         0.2983 
    111 H111       25.2528    3.5994   -9.2174 H         1 UNK         0.0947 
    112 H112       24.6499    0.6518   -9.8206 H         1 UNK         0.0806 
    113 H113       24.0686    2.0060  -10.7825 H         1 UNK         0.0806 
    114 H114       23.5406    1.8301   -9.1194 H         1 UNK         0.0806 
    115 H115       27.7364    1.1473   -9.3340 H         1 UNK         0.3000 
    116 H116       28.8832    2.3193  -11.8416 H         1 UNK         0.0850 
    117 H117       30.0879    0.0638  -11.9725 H         1 UNK         0.0810 
    118 H118       28.3650    0.0090  -12.3085 H         1 UNK         0.0810 
    119 H119       28.9602   -0.5299  -10.7485 H         1 UNK         0.0810 
    120 H120       29.2033    3.9046   -9.9867 H         1 UNK         0.3040 
    121 H121       30.5671    5.1921   -8.8901 H         1 UNK         0.0766 
    122 H122       32.8510    3.3266   -9.7208 H         1 UNK         0.0812 
    123 H123       33.0298    4.9505   -9.0777 H         1 UNK         0.0812 
    124 H124       32.2544    4.7106  -10.6348 H         1 UNK         0.0812 
    125 H125       31.2949    1.8180   -8.0501 H         1 UNK         0.3205 
    126 H126       30.8158    2.1691   -5.2575 H         1 UNK         0.0754 
    127 H127       33.1576    1.7232   -4.4080 H         1 UNK         0.0769 
    128 H128       33.0127    3.3042   -5.1497 H         1 UNK         0.0769 
    129 H129       33.7834    1.9861   -6.0300 H         1 UNK         0.0769 
    130 H130       32.5307    0.2468   -7.7616 H         1 UNK         0.2981 
    131 H131       31.6230   -2.2406   -6.4116 H         1 UNK         0.0541 
    132 H132       30.5923   -1.8917  -10.2569 H         1 UNK         0.3459 
    133 H133       31.1078   -0.4807   -9.3736 H         1 UNK         0.3459 
    134 H134       34.2493   -1.6786   -7.8564 H         1 UNK         0.0612 
    135 H135       33.7171   -3.2937   -7.5062 H         1 UNK         0.0612 
    136 H136       35.0858   -4.0260   -4.2180 H         1 UNK         0.0624 
    137 H137       34.5061   -4.5492   -5.7715 H         1 UNK         0.0624 
@<TRIPOS>BOND
     1    1    2 1    
     2    1   72 1    
     3    1   73 1    
     4    1   74 1    
     5    2    3 2    
     6    2    4 am   BACKBONE|DICT|INTERRES
     7    4    5 1    
     8    4   75 1    
     9    5    6 1    
    10    5   35 1    
    11    5   76 1    
    12    6    7 1    
    13    6   77 1    
    14    6   78 1    
    15    7    8 1    
    16    8    9 1    
    17    8   79 1    
    18    8   80 1    
    19    9   10 ar   
    20    9   14 ar   
    21   10   11 ar   
    22   10   81 1    
    23   11   12 ar   
    24   11   71 1    
    25   12   13 ar   
    26   12   82 1    
    27   13   14 ar   
    28   13   15 1    
    29   14   83 1    
    30   15   16 1    
    31   15   84 1    
    32   15   85 1    
    33   16   17 1    
    34   17   18 1    
    35   17   86 1    
    36   17   87 1    
    37   18   19 1    
    38   18   37 1    
    39   18   88 1    
    40   19   20 am   BACKBONE|DICT|INTERRES
    41   19   89 1    
    42   20   21 2    
    43   20   22 1    
    44   22   23 1    
    45   22   24 1    
    46   22   90 1    
    47   23   91 1    
    48   23   92 1    
    49   23   93 1    
    50   24   25 am   BACKBONE|DICT|INTERRES
    51   24   94 1    
    52   25   26 2    
    53   25   27 1    
    54   27   28 1    
    55   27   29 1    
    56   27   95 1    
    57   28   96 1    
    58   28   97 1    
    59   28   98 1    
    60   29   30 am   BACKBONE|DICT|INTERRES
    61   29   99 1    
    62   30   31 2    
    63   30   32 1    
    64   32   33 1    
    65   32   34 1    
    66   32  100 1    
    67   33  101 1    
    68   33  102 1    
    69   33  103 1    
    70   34   35 am   BACKBONE|DICT|INTERRES
    71   34  104 1    
    72   35   36 2    
    73   37   38 2    
    74   37   39 am   BACKBONE|DICT|INTERRES
    75   39   40 1    
    76   39  105 1    
    77   40   41 1    
    78   40   42 1    
    79   40  106 1    
    80   41  107 1    
    81   41  108 1    
    82   41  109 1    
    83   42   43 2    
    84   42   44 am   BACKBONE|DICT|INTERRES
    85   44   45 1    
    86   44  110 1    
    87   45   46 1    
    88   45   47 1    
    89   45  111 1    
    90   46  112 1    
    91   46  113 1    
    92   46  114 1    
    93   47   48 2    
    94   47   49 am   BACKBONE|DICT|INTERRES
    95   49   50 1    
    96   49  115 1    
    97   50   51 1    
    98   50   52 1    
    99   50  116 1    
   100   51  117 1    
   101   51  118 1    
   102   51  119 1    
   103   52   53 2    
   104   52   54 am   BACKBONE|DICT|INTERRES
   105   54   55 1    
   106   54  120 1    
   107   55   56 1    
   108   55   57 1    
   109   55  121 1    
   110   56  122 1    
   111   56  123 1    
   112   56  124 1    
   113   57   58 2    
   114   57   59 am   BACKBONE|DICT|INTERRES
   115   59   60 1    
   116   59  125 1    
   117   60   61 1    
   118   60   62 1    
   119   60  126 1    
   120   61  127 1    
   121   61  128 1    
   122   61  129 1    
   123   62   63 2    
   124   62   64 am   BACKBONE|DICT|INTERRES
   125   64   65 1    
   126   64  130 1    
   127   65   66 1    
   128   65   69 1    
   129   65  131 1    
   130   66   67 am   BACKBONE|DICT|INTERRES
   131   66   68 2    
   132   67  132 1    
   133   67  133 1    
   134   69   70 1    
   135   69  134 1    
   136   69  135 1    
   137   70   71 1    
   138   71  136 1    
   139   71  137 1    
@<TRIPOS>SUBSTRUCTURE
     1 UNK         1 GROUP             0       ****    0 ROOT    
