@<TRIPOS>MOLECULE
3R137
137   139    1
SMALL
USER_CHARGES


@<TRIPOS>ATOM
      1 CA         25.8499   -2.7637    3.1963 C.3       0 UNK        -0.2020 
      2 C          26.6487   -3.7365    2.3333 C.2       0 UNK         0.4855 
      3 O          26.9977   -4.8162    2.8056 O.2       0 UNK        -0.5197 
      4 N          26.9652   -3.4115    1.0715 N.am      1 UNK        -0.4892 
      5 CA         26.5991   -2.1789    0.3542 C.3       1 UNK         0.0835 
      6 C6         27.5860   -1.8771   -0.8018 C.3       12 UNK        -0.0855 
      7 S7         29.2457   -1.4620   -0.1627 S.3       12 UNK        -0.2931 
      8 C8         30.2139   -2.9498   -0.5695 C.3       12 UNK         0.0378 
      9 C9         30.6644   -2.9504   -2.0227 C.ar      12 UNK        -0.0802 
     10 C10        31.7338   -2.1395   -2.4210 C.ar      12 UNK        -0.0944 
     11 C11        32.1583   -2.1323   -3.7526 C.ar      12 UNK        -0.0787 
     12 C12        31.5285   -2.9653   -4.6780 C.ar      12 UNK        -0.0862 
     13 C13        30.4285   -3.7405   -4.3043 C.ar      12 UNK        -0.0733 
     14 C14        30.0101   -3.7460   -2.9704 C.ar      12 UNK        -0.0832 
     15 C15        29.6504   -4.4991   -5.3697 C.3       12 UNK         0.0240 
     16 S16        28.2134   -3.5400   -5.9642 S.3       12 UNK        -0.2522 
     17 C17        28.9438   -1.8890   -6.2394 C.3       12 UNK        -0.0967 
     18 CA         28.0373   -0.9258   -7.0340 C.3       5 UNK         0.0660 
     19 N          26.7334   -0.7469   -6.3884 N.am      5 UNK        -0.4015 
     20 C          25.7048   -0.0362   -6.8653 C.2       4 UNK         0.4946 
     21 O          25.7641    0.6267   -7.9034 O.2       4 UNK        -0.5353 
     22 CA         24.4021   -0.0689   -6.0371 C.3       4 UNK         0.0277 
     23 CB         23.2190    0.5900   -6.7705 C.3       4 UNK        -0.1981 
     24 N          24.0088   -1.4252   -5.6351 N.am      4 UNK        -0.4209 
     25 C          24.5465   -2.1236   -4.6273 C.2       3 UNK         0.4942 
     26 O          25.5043   -1.7273   -3.9581 O.2       3 UNK        -0.5208 
     27 CA         23.9505   -3.5111   -4.3541 C.3       3 UNK         0.0250 
     28 CB         24.7952   -4.6083   -5.0205 C.3       3 UNK        -0.1990 
     29 N          23.9081   -3.7511   -2.9139 N.am      3 UNK        -0.4232 
     30 C          22.9017   -3.3832   -2.1116 C.2       2 UNK         0.4993 
     31 O          21.8406   -2.9039   -2.5137 O.2       2 UNK        -0.5286 
     32 CA         23.1179   -3.5764   -0.6011 C.3       2 UNK         0.0209 
     33 CB         22.6401   -4.9690   -0.1581 C.3       2 UNK        -0.1931 
     34 N          24.5130   -3.3870   -0.1890 N.am      2 UNK        -0.4546 
     35 C          25.1402   -2.2007   -0.1528 C.2       1 UNK         0.5154 
     36 O          24.5986   -1.1398   -0.4646 O.2       1 UNK        -0.5181 
     37 C          28.7801    0.4045   -7.2651 C.2       5 UNK         0.5014 
     38 O          29.4238    0.5655   -8.3029 O.2       5 UNK        -0.5248 
     39 N          28.6690    1.3345   -6.3057 N.am      6 UNK        -0.4434 
     40 CA         29.2678    2.6681   -6.3751 C.3       6 UNK         0.0363 
     41 CB         29.2191    3.3271   -4.9881 C.3       6 UNK        -0.1936 
     42 C          28.6001    3.5664   -7.4295 C.2       6 UNK         0.5081 
     43 O          29.2982    4.3321   -8.0925 O.2       6 UNK        -0.5248 
     44 N          27.2751    3.4365   -7.5964 N.am      7 UNK        -0.4718 
     45 CA         26.5014    4.1426   -8.6241 C.3       7 UNK         0.0273 
     46 CB         25.0043    4.0832   -8.2856 C.3       7 UNK        -0.1935 
     47 C          26.7637    3.5746  -10.0280 C.2       7 UNK         0.5018 
     48 O          26.8294    4.3396  -10.9903 O.2       7 UNK        -0.5186 
     49 N          26.9559    2.2501  -10.1088 N.am      8 UNK        -0.4240 
     50 CA         27.3989    1.5365  -11.3101 C.3       8 UNK         0.0235 
     51 CB         27.1415    0.0328  -11.1141 C.3       8 UNK        -0.2000 
     52 C          28.8797    1.7854  -11.6667 C.2       8 UNK         0.4941 
     53 O          29.2919    1.4265  -12.7703 O.2       8 UNK        -0.5273 
     54 N          29.6473    2.3684  -10.7316 N.am      9 UNK        -0.4262 
     55 CA         31.0894    2.6373  -10.7780 C.3       9 UNK         0.0264 
     56 CB         31.4325    3.6516  -11.8894 C.3       9 UNK        -0.1955 
     57 C          31.9416    1.3545  -10.8476 C.2       9 UNK         0.5031 
     58 O          33.0370    1.3721  -11.4130 O.2       9 UNK        -0.5390 
     59 N          31.4406    0.2650  -10.2488 N.am      10 UNK        -0.4204 
     60 CA         32.0939   -1.0456  -10.2163 C.3       10 UNK         0.0237 
     61 CB         31.0503   -2.1213   -9.8770 C.3       10 UNK        -0.1985 
     62 C          33.2857   -1.1059   -9.2446 C.2       10 UNK         0.4970 
     63 O          34.1332   -1.9867   -9.3945 O.2       10 UNK        -0.4914 
     64 N          33.3412   -0.1743   -8.2830 N.am      11 UNK        -0.4285 
     65 CA         34.4539   -0.0118   -7.3332 C.3       11 UNK         0.1007 
     66 C          35.7524    0.5810   -7.9576 C.2       11 UNK         0.5703 
     67 N          35.7380    1.0823   -9.1882 N.am      11 UNK        -0.7361 
     68 O          36.7978    0.5785   -7.3119 O.2       11 UNK        -0.4986 
     69 C69        34.0349    0.7881   -6.0686 C.3       12 UNK        -0.0947 
     70 S70        32.5419    0.1297   -5.2580 S.3       12 UNK        -0.2240 
     71 C71        33.2539   -1.1915   -4.2250 C.3       12 UNK         0.0194 
     72 H72        26.3974   -1.8328    3.3405 H         1 UNK         0.0906 
     73 H73        24.8817   -2.5407    2.7498 H         1 UNK         0.0906 
     74 H74        25.6657   -3.1923    4.1813 H         1 UNK         0.0906 
     75 H75        27.5119   -4.0713    0.5378 H         1 UNK         0.3140 
     76 H76        26.6577   -1.3399    1.0502 H         1 UNK         0.1085 
     77 H77        27.6402   -2.7113   -1.5030 H         1 UNK         0.0836 
     78 H78        27.2453   -1.0199   -1.3870 H         1 UNK         0.0836 
     79 H79        29.6377   -3.8462   -0.3364 H         1 UNK         0.0731 
     80 H80        31.0928   -2.9807    0.0762 H         1 UNK         0.0731 
     81 H81        32.2177   -1.4977   -1.6972 H         1 UNK         0.1312 
     82 H82        31.8498   -2.9477   -5.7107 H         1 UNK         0.1406 
     83 H83        29.1593   -4.3471   -2.6803 H         1 UNK         0.1631 
     84 H84        29.3041   -5.4542   -4.9721 H         1 UNK         0.0717 
     85 H85        30.2963   -4.7354   -6.2169 H         1 UNK         0.0717 
     86 H86        29.1815   -1.4576   -5.2643 H         1 UNK         0.0934 
     87 H87        29.8946   -2.0210   -6.7556 H         1 UNK         0.0934 
     88 H88        27.8499   -1.3651   -8.0157 H         1 UNK         0.0739 
     89 H89        26.5868   -1.2519   -5.5187 H         1 UNK         0.3093 
     90 H90        24.5919    0.5133   -5.1326 H         1 UNK         0.0818 
     91 H91        23.4209    1.6415   -6.9716 H         1 UNK         0.0819 
     92 H92        23.0155    0.1060   -7.7266 H         1 UNK         0.0819 
     93 H93        22.3081    0.5519   -6.1728 H         1 UNK         0.0819 
     94 H94        23.2605   -1.8457   -6.1679 H         1 UNK         0.3041 
     95 H95        22.9391   -3.5553   -4.7645 H         1 UNK         0.0784 
     96 H96        24.8929   -4.4343   -6.0931 H         1 UNK         0.0793 
     97 H97        25.8018   -4.6509   -4.6035 H         1 UNK         0.0793 
     98 H98        24.3398   -5.5902   -4.8913 H         1 UNK         0.0793 
     99 H99        24.7609   -4.0817   -2.4878 H         1 UNK         0.3024 
    100 H100       22.5080   -2.8279   -0.0894 H         1 UNK         0.1171 
    101 H101       22.7111   -5.0875    0.9233 H         1 UNK         0.0786 
    102 H102       21.5959   -5.1277   -0.4317 H         1 UNK         0.0786 
    103 H103       23.2231   -5.7649   -0.6231 H         1 UNK         0.0786 
    104 H104       25.0236   -4.2067    0.1077 H         1 UNK         0.2977 
    105 H105       28.1306    1.1151   -5.4804 H         1 UNK         0.3127 
    106 H106       30.3168    2.5508   -6.6573 H         1 UNK         0.0770 
    107 H107       28.1954    3.4533   -4.6333 H         1 UNK         0.0814 
    108 H108       29.6802    4.3156   -5.0111 H         1 UNK         0.0814 
    109 H109       29.7620    2.7360   -4.2501 H         1 UNK         0.0814 
    110 H110       26.7805    2.7482   -7.0471 H         1 UNK         0.2983 
    111 H111       26.8095    5.1908   -8.6247 H         1 UNK         0.0947 
    112 H112       24.4257    4.6873   -8.9856 H         1 UNK         0.0806 
    113 H113       24.8038    4.4654   -7.2846 H         1 UNK         0.0806 
    114 H114       24.6195    3.0656   -8.3446 H         1 UNK         0.0806 
    115 H115       26.7969    1.6900   -9.2758 H         1 UNK         0.3000 
    116 H116       26.7974    1.8823  -12.1534 H         1 UNK         0.0850 
    117 H117       27.3932   -0.5281  -12.0151 H         1 UNK         0.0810 
    118 H118       26.0931   -0.1656  -10.8900 H         1 UNK         0.0810 
    119 H119       27.7404   -0.3749  -10.2996 H         1 UNK         0.0810 
    120 H120       29.2016    2.5931   -9.8521 H         1 UNK         0.3040 
    121 H121       31.3341    3.1048   -9.8230 H         1 UNK         0.0766 
    122 H122       31.2835    3.2298  -12.8838 H         1 UNK         0.0812 
    123 H123       32.4749    3.9656  -11.8240 H         1 UNK         0.0812 
    124 H124       30.8192    4.5491  -11.8092 H         1 UNK         0.0812 
    125 H125       30.5718    0.3582   -9.7232 H         1 UNK         0.3205 
    126 H126       32.4820   -1.2563  -11.2152 H         1 UNK         0.0754 
    127 H127       31.4998   -3.1152   -9.8642 H         1 UNK         0.0769 
    128 H128       30.2461   -2.1382  -10.6130 H         1 UNK         0.0769 
    129 H129       30.6034   -1.9514   -8.8995 H         1 UNK         0.0769 
    130 H130       32.5943    0.4998   -8.2154 H         1 UNK         0.2981 
    131 H131       34.7295   -1.0135   -6.9991 H         1 UNK         0.0541 
    132 H132       34.8920    1.0826   -9.7385 H         1 UNK         0.3459 
    133 H133       36.5894    1.4573   -9.5754 H         1 UNK         0.3459 
    134 H134       33.8357    1.8286   -6.3308 H         1 UNK         0.0612 
    135 H135       34.8446    0.8088   -5.3366 H         1 UNK         0.0612 
    136 H136       33.7835   -0.7468   -3.3811 H         1 UNK         0.0624 
    137 H137       33.9897   -1.7569   -4.7981 H         1 UNK         0.0624 
@<TRIPOS>BOND
     1    1    2 1    
     2    1   72 1    
     3    1   73 1    
     4    1   74 1    
     5    2    3 2    
     6    2    4 am   BACKBONE|DICT|INTERRES
     7    4    5 1    
     8    4   75 1    
     9    5    6 1    
    10    5   35 1    
    11    5   76 1    
    12    6    7 1    
    13    6   77 1    
    14    6   78 1    
    15    7    8 1    
    16    8    9 1    
    17    8   79 1    
    18    8   80 1    
    19    9   10 ar   
    20    9   14 ar   
    21   10   11 ar   
    22   10   81 1    
    23   11   12 ar   
    24   11   71 1    
    25   12   13 ar   
    26   12   82 1    
    27   13   14 ar   
    28   13   15 1    
    29   14   83 1    
    30   15   16 1    
    31   15   84 1    
    32   15   85 1    
    33   16   17 1    
    34   17   18 1    
    35   17   86 1    
    36   17   87 1    
    37   18   19 1    
    38   18   37 1    
    39   18   88 1    
    40   19   20 am   BACKBONE|DICT|INTERRES
    41   19   89 1    
    42   20   21 2    
    43   20   22 1    
    44   22   23 1    
    45   22   24 1    
    46   22   90 1    
    47   23   91 1    
    48   23   92 1    
    49   23   93 1    
    50   24   25 am   BACKBONE|DICT|INTERRES
    51   24   94 1    
    52   25   26 2    
    53   25   27 1    
    54   27   28 1    
    55   27   29 1    
    56   27   95 1    
    57   28   96 1    
    58   28   97 1    
    59   28   98 1    
    60   29   30 am   BACKBONE|DICT|INTERRES
    61   29   99 1    
    62   30   31 2    
    63   30   32 1    
    64   32   33 1    
    65   32   34 1    
    66   32  100 1    
    67   33  101 1    
    68   33  102 1    
    69   33  103 1    
    70   34   35 am   BACKBONE|DICT|INTERRES
    71   34  104 1    
    72   35   36 2    
    73   37   38 2    
    74   37   39 am   BACKBONE|DICT|INTERRES
    75   39   40 1    
    76   39  105 1    
    77   40   41 1    
    78   40   42 1    
    79   40  106 1    
    80   41  107 1    
    81   41  108 1    
    82   41  109 1    
    83   42   43 2    
    84   42   44 am   BACKBONE|DICT|INTERRES
    85   44   45 1    
    86   44  110 1    
    87   45   46 1    
    88   45   47 1    
    89   45  111 1    
    90   46  112 1    
    91   46  113 1    
    92   46  114 1    
    93   47   48 2    
    94   47   49 am   BACKBONE|DICT|INTERRES
    95   49   50 1    
    96   49  115 1    
    97   50   51 1    
    98   50   52 1    
    99   50  116 1    
   100   51  117 1    
   101   51  118 1    
   102   51  119 1    
   103   52   53 2    
   104   52   54 am   BACKBONE|DICT|INTERRES
   105   54   55 1    
   106   54  120 1    
   107   55   56 1    
   108   55   57 1    
   109   55  121 1    
   110   56  122 1    
   111   56  123 1    
   112   56  124 1    
   113   57   58 2    
   114   57   59 am   BACKBONE|DICT|INTERRES
   115   59   60 1    
   116   59  125 1    
   117   60   61 1    
   118   60   62 1    
   119   60  126 1    
   120   61  127 1    
   121   61  128 1    
   122   61  129 1    
   123   62   63 2    
   124   62   64 am   BACKBONE|DICT|INTERRES
   125   64   65 1    
   126   64  130 1    
   127   65   66 1    
   128   65   69 1    
   129   65  131 1    
   130   66   67 am   BACKBONE|DICT|INTERRES
   131   66   68 2    
   132   67  132 1    
   133   67  133 1    
   134   69   70 1    
   135   69  134 1    
   136   69  135 1    
   137   70   71 1    
   138   71  136 1    
   139   71  137 1    
@<TRIPOS>SUBSTRUCTURE
     1 UNK         1 GROUP             0       ****    0 ROOT    
