@<TRIPOS>MOLECULE
3R137
137   139    1
SMALL
USER_CHARGES


@<TRIPOS>ATOM
      1 CA         25.3088   -6.3695   -3.9418 C.3       0 UNK        -0.2020 
      2 C          25.6346   -5.4125   -2.8059 C.2       0 UNK         0.4855 
      3 O          24.7262   -4.8083   -2.2344 O.2       0 UNK        -0.5197 
      4 N          26.9243   -5.2550   -2.4780 N.am      1 UNK        -0.4892 
      5 CA         27.4169   -4.3220   -1.4592 C.3       1 UNK         0.0835 
      6 C6         28.9210   -4.5401   -1.1767 C.3       12 UNK        -0.0855 
      7 S7         29.4792   -3.6728    0.3318 S.3       12 UNK        -0.2931 
      8 C8         31.2371   -3.3584   -0.0334 C.3       12 UNK         0.0378 
      9 C9         31.4238   -2.4411   -1.2340 C.ar      12 UNK        -0.0802 
     10 C10        31.8815   -2.9603   -2.4477 C.ar      12 UNK        -0.0944 
     11 C11        32.0341   -2.1308   -3.5602 C.ar      12 UNK        -0.0787 
     12 C12        31.7500   -0.7667   -3.4494 C.ar      12 UNK        -0.0862 
     13 C13        31.2860   -0.2327   -2.2409 C.ar      12 UNK        -0.0733 
     14 C14        31.1320   -1.0773   -1.1358 C.ar      12 UNK        -0.0832 
     15 C15        30.9462    1.2505   -2.1043 C.3       12 UNK         0.0240 
     16 S16        30.0747    1.9655   -3.5423 S.3       12 UNK        -0.2522 
     17 C17        28.5842    0.9194   -3.6658 C.3       12 UNK        -0.0967 
     18 CA         28.2325    0.5954   -5.1414 C.3       5 UNK         0.0660 
     19 N          27.6165   -0.7320   -5.2749 N.am      5 UNK        -0.4015 
     20 C          27.2718   -1.3192   -6.4321 C.2       4 UNK         0.4946 
     21 O          27.4750   -0.8240   -7.5400 O.2       4 UNK        -0.5353 
     22 CA         26.5109   -2.6511   -6.3376 C.3       4 UNK         0.0277 
     23 CB         27.4640   -3.8347   -6.1106 C.3       4 UNK        -0.1981 
     24 N          25.5083   -2.5992   -5.2728 N.am      4 UNK        -0.4209 
     25 C          24.2933   -2.0494   -5.4176 C.2       3 UNK         0.4942 
     26 O          23.8457   -1.6571   -6.4950 O.2       3 UNK        -0.5208 
     27 CA         23.4320   -1.8841   -4.1525 C.3       3 UNK         0.0250 
     28 CB         22.4169   -3.0319   -4.0328 C.3       3 UNK        -0.1990 
     29 N          24.2244   -1.7884   -2.9222 N.am      3 UNK        -0.4232 
     30 C          24.9751   -0.7233   -2.5989 C.2       2 UNK         0.4993 
     31 O          25.0575    0.2858   -3.2965 O.2       2 UNK        -0.5286 
     32 CA         25.8275   -0.8119   -1.3202 C.3       2 UNK         0.0209 
     33 CB         25.0354   -0.2979   -0.1082 C.3       2 UNK        -0.1931 
     34 N          26.3323   -2.1589   -1.0412 N.am      2 UNK        -0.4546 
     35 C          27.1005   -2.8709   -1.8766 C.2       1 UNK         0.5154 
     36 O          27.4931   -2.4481   -2.9673 O.2       1 UNK        -0.5181 
     37 C          27.3762    1.7190   -5.7722 C.2       5 UNK         0.5014 
     38 O          27.9225    2.6269   -6.4025 O.2       5 UNK        -0.5248 
     39 N          26.0443    1.6076   -5.6409 N.am      6 UNK        -0.4434 
     40 CA         25.0269    2.4961   -6.2169 C.3       6 UNK         0.0363 
     41 CB         23.6345    2.0333   -5.7571 C.3       6 UNK        -0.1936 
     42 C          25.0606    2.6456   -7.7521 C.2       6 UNK         0.5081 
     43 O          24.4371    3.5733   -8.2686 O.2       6 UNK        -0.5248 
     44 N          25.8029    1.7800   -8.4598 N.am      7 UNK        -0.4718 
     45 CA         26.1247    1.9314   -9.8830 C.3       7 UNK         0.0273 
     46 CB         26.7127    0.6110  -10.4074 C.3       7 UNK        -0.1935 
     47 C          27.0886    3.1012  -10.1801 C.2       7 UNK         0.5018 
     48 O          27.2585    3.4385  -11.3524 O.2       7 UNK        -0.5186 
     49 N          27.7005    3.6848   -9.1349 N.am      8 UNK        -0.4240 
     50 CA         28.6848    4.7737   -9.1628 C.3       8 UNK         0.0235 
     51 CB         28.0922    6.0631   -9.7721 C.3       8 UNK        -0.2000 
     52 C          30.0086    4.3367   -9.8147 C.2       8 UNK         0.4941 
     53 O          30.6067    5.0895  -10.5863 O.2       8 UNK        -0.5273 
     54 N          30.4403    3.1183   -9.4779 N.am      9 UNK        -0.4262 
     55 CA         31.6786    2.4858   -9.9092 C.3       9 UNK         0.0264 
     56 CB         31.4628    1.7914  -11.2665 C.3       9 UNK        -0.1955 
     57 C          32.0774    1.4760   -8.8297 C.2       9 UNK         0.5031 
     58 O          31.2226    1.0497   -8.0463 O.2       9 UNK        -0.5390 
     59 N          33.3541    1.0753   -8.8229 N.am      10 UNK        -0.4204 
     60 CA         33.9314    0.1069   -7.8838 C.3       10 UNK         0.0237 
     61 CB         35.4569    0.3154   -7.8263 C.3       10 UNK        -0.1985 
     62 C          33.5406   -1.3495   -8.2144 C.2       10 UNK         0.4970 
     63 O          34.4168   -2.2016   -8.3697 O.2       10 UNK        -0.4914 
     64 N          32.2292   -1.6005   -8.3124 N.am      11 UNK        -0.4285 
     65 CA         31.5911   -2.9053   -8.5596 C.3       11 UNK         0.1007 
     66 C          31.9156   -3.5480   -9.9441 C.2       11 UNK         0.5703 
     67 N          32.3985   -2.7942  -10.9251 N.am      11 UNK        -0.7361 
     68 O          31.6935   -4.7390  -10.1508 O.2       11 UNK        -0.4986 
     69 C69        31.7771   -3.8897   -7.3686 C.3       12 UNK        -0.0947 
     70 S70        31.0170   -3.2592   -5.8365 S.3       12 UNK        -0.2240 
     71 C71        32.4701   -2.7187   -4.8901 C.3       12 UNK         0.0194 
     72 H72        24.8112   -5.8346   -4.7504 H         1 UNK         0.0906 
     73 H73        26.2032   -6.8424   -4.3470 H         1 UNK         0.0906 
     74 H74        24.6396   -7.1542   -3.5899 H         1 UNK         0.0906 
     75 H75        27.6331   -5.7569   -2.9936 H         1 UNK         0.3140 
     76 H76        26.8698   -4.5463   -0.5405 H         1 UNK         0.1085 
     77 H77        29.1238   -5.6024   -1.0320 H         1 UNK         0.0836 
     78 H78        29.5114   -4.2368   -2.0417 H         1 UNK         0.0836 
     79 H79        31.7454   -4.3114   -0.1895 H         1 UNK         0.0731 
     80 H80        31.7041   -2.9046    0.8419 H         1 UNK         0.0731 
     81 H81        32.0957   -4.0167   -2.5360 H         1 UNK         0.1312 
     82 H82        31.8656   -0.1268   -4.3135 H         1 UNK         0.1406 
     83 H83        30.7725   -0.6793   -0.1963 H         1 UNK         0.1631 
     84 H84        31.8721    1.8051   -1.9480 H         1 UNK         0.0717 
     85 H85        30.3315    1.4208   -1.2190 H         1 UNK         0.0717 
     86 H86        28.7680   -0.0050   -3.1172 H         1 UNK         0.0934 
     87 H87        27.7567    1.4051   -3.1445 H         1 UNK         0.0934 
     88 H88        29.1587    0.5394   -5.7187 H         1 UNK         0.0739 
     89 H89        27.4741   -1.2537   -4.4134 H         1 UNK         0.3093 
     90 H90        26.0070   -2.8137   -7.2931 H         1 UNK         0.0818 
     91 H91        26.9233   -4.7805   -6.0895 H         1 UNK         0.0819 
     92 H92        28.1951   -3.8999   -6.9174 H         1 UNK         0.0819 
     93 H93        28.0190   -3.7440   -5.1769 H         1 UNK         0.0819 
     94 H94        25.8214   -2.8495   -4.3439 H         1 UNK         0.3041 
     95 H95        22.8720   -0.9525   -4.2613 H         1 UNK         0.0784 
     96 H96        21.7590   -3.0592   -4.9025 H         1 UNK         0.0793 
     97 H97        22.9059   -4.0037   -3.9684 H         1 UNK         0.0793 
     98 H98        21.7843   -2.9143   -3.1528 H         1 UNK         0.0793 
     99 H99        24.2481   -2.6095   -2.3282 H         1 UNK         0.3024 
    100 H100       26.6931   -0.1619   -1.4626 H         1 UNK         0.1171 
    101 H101       24.6669    0.7139   -0.2842 H         1 UNK         0.0786 
    102 H102       25.6571   -0.2623    0.7867 H         1 UNK         0.0786 
    103 H103       24.1707   -0.9270    0.1069 H         1 UNK         0.0786 
    104 H104       26.0369   -2.5810   -0.1724 H         1 UNK         0.2977 
    105 H105       25.6928    0.8862   -5.0161 H         1 UNK         0.3127 
    106 H106       25.2062    3.4907   -5.8042 H         1 UNK         0.0770 
    107 H107       23.4142    1.0225   -6.1007 H         1 UNK         0.0814 
    108 H108       22.8534    2.6872   -6.1473 H         1 UNK         0.0814 
    109 H109       23.5483    2.0469   -4.6707 H         1 UNK         0.0814 
    110 H110       26.2816    1.0331   -7.9687 H         1 UNK         0.2983 
    111 H111       25.1960    2.1320  -10.4215 H         1 UNK         0.0947 
    112 H112       26.8757    0.6563  -11.4850 H         1 UNK         0.0806 
    113 H113       26.0442   -0.2284  -10.2154 H         1 UNK         0.0806 
    114 H114       27.6744    0.3873   -9.9434 H         1 UNK         0.0806 
    115 H115       27.5324    3.2894   -8.2129 H         1 UNK         0.3000 
    116 H116       28.9214    4.9875   -8.1191 H         1 UNK         0.0850 
    117 H117       28.7798    6.9011   -9.6513 H         1 UNK         0.0810 
    118 H118       27.1570    6.3386   -9.2847 H         1 UNK         0.0810 
    119 H119       27.8971    5.9582  -10.8396 H         1 UNK         0.0810 
    120 H120       29.9286    2.5783   -8.7886 H         1 UNK         0.3040 
    121 H121       32.4645    3.2396   -9.9932 H         1 UNK         0.0766 
    122 H122       31.1637    2.5061  -12.0335 H         1 UNK         0.0812 
    123 H123       30.6888    1.0248  -11.2070 H         1 UNK         0.0812 
    124 H124       32.3770    1.3092  -11.6146 H         1 UNK         0.0812 
    125 H125       33.9807    1.4464   -9.5233 H         1 UNK         0.3205 
    126 H126       33.5358    0.3176   -6.8875 H         1 UNK         0.0754 
    127 H127       35.9160   -0.3513   -7.0948 H         1 UNK         0.0769 
    128 H128       35.7075    1.3346   -7.5314 H         1 UNK         0.0769 
    129 H129       35.9289    0.1181   -8.7897 H         1 UNK         0.0769 
    130 H130       31.5978   -0.8152   -8.1769 H         1 UNK         0.2981 
    131 H131       30.5246   -2.6857   -8.6234 H         1 UNK         0.0541 
    132 H132       32.5825   -1.8163  -10.7741 H         1 UNK         0.3459 
    133 H133       32.5938   -3.2151  -11.8195 H         1 UNK         0.3459 
    134 H134       31.2955   -4.8457   -7.5801 H         1 UNK         0.0612 
    135 H135       32.8319   -4.1134   -7.2027 H         1 UNK         0.0612 
    136 H136       33.1388   -3.5660   -4.7309 H         1 UNK         0.0624 
    137 H137       33.0316   -1.9782   -5.4585 H         1 UNK         0.0624 
@<TRIPOS>BOND
     1    1    2 1    
     2    1   72 1    
     3    1   73 1    
     4    1   74 1    
     5    2    3 2    
     6    2    4 am   BACKBONE|DICT|INTERRES
     7    4    5 1    
     8    4   75 1    
     9    5    6 1    
    10    5   35 1    
    11    5   76 1    
    12    6    7 1    
    13    6   77 1    
    14    6   78 1    
    15    7    8 1    
    16    8    9 1    
    17    8   79 1    
    18    8   80 1    
    19    9   10 ar   
    20    9   14 ar   
    21   10   11 ar   
    22   10   81 1    
    23   11   12 ar   
    24   11   71 1    
    25   12   13 ar   
    26   12   82 1    
    27   13   14 ar   
    28   13   15 1    
    29   14   83 1    
    30   15   16 1    
    31   15   84 1    
    32   15   85 1    
    33   16   17 1    
    34   17   18 1    
    35   17   86 1    
    36   17   87 1    
    37   18   19 1    
    38   18   37 1    
    39   18   88 1    
    40   19   20 am   BACKBONE|DICT|INTERRES
    41   19   89 1    
    42   20   21 2    
    43   20   22 1    
    44   22   23 1    
    45   22   24 1    
    46   22   90 1    
    47   23   91 1    
    48   23   92 1    
    49   23   93 1    
    50   24   25 am   BACKBONE|DICT|INTERRES
    51   24   94 1    
    52   25   26 2    
    53   25   27 1    
    54   27   28 1    
    55   27   29 1    
    56   27   95 1    
    57   28   96 1    
    58   28   97 1    
    59   28   98 1    
    60   29   30 am   BACKBONE|DICT|INTERRES
    61   29   99 1    
    62   30   31 2    
    63   30   32 1    
    64   32   33 1    
    65   32   34 1    
    66   32  100 1    
    67   33  101 1    
    68   33  102 1    
    69   33  103 1    
    70   34   35 am   BACKBONE|DICT|INTERRES
    71   34  104 1    
    72   35   36 2    
    73   37   38 2    
    74   37   39 am   BACKBONE|DICT|INTERRES
    75   39   40 1    
    76   39  105 1    
    77   40   41 1    
    78   40   42 1    
    79   40  106 1    
    80   41  107 1    
    81   41  108 1    
    82   41  109 1    
    83   42   43 2    
    84   42   44 am   BACKBONE|DICT|INTERRES
    85   44   45 1    
    86   44  110 1    
    87   45   46 1    
    88   45   47 1    
    89   45  111 1    
    90   46  112 1    
    91   46  113 1    
    92   46  114 1    
    93   47   48 2    
    94   47   49 am   BACKBONE|DICT|INTERRES
    95   49   50 1    
    96   49  115 1    
    97   50   51 1    
    98   50   52 1    
    99   50  116 1    
   100   51  117 1    
   101   51  118 1    
   102   51  119 1    
   103   52   53 2    
   104   52   54 am   BACKBONE|DICT|INTERRES
   105   54   55 1    
   106   54  120 1    
   107   55   56 1    
   108   55   57 1    
   109   55  121 1    
   110   56  122 1    
   111   56  123 1    
   112   56  124 1    
   113   57   58 2    
   114   57   59 am   BACKBONE|DICT|INTERRES
   115   59   60 1    
   116   59  125 1    
   117   60   61 1    
   118   60   62 1    
   119   60  126 1    
   120   61  127 1    
   121   61  128 1    
   122   61  129 1    
   123   62   63 2    
   124   62   64 am   BACKBONE|DICT|INTERRES
   125   64   65 1    
   126   64  130 1    
   127   65   66 1    
   128   65   69 1    
   129   65  131 1    
   130   66   67 am   BACKBONE|DICT|INTERRES
   131   66   68 2    
   132   67  132 1    
   133   67  133 1    
   134   69   70 1    
   135   69  134 1    
   136   69  135 1    
   137   70   71 1    
   138   71  136 1    
   139   71  137 1    
@<TRIPOS>SUBSTRUCTURE
     1 UNK         1 GROUP             0       ****    0 ROOT    
