@<TRIPOS>MOLECULE
3R137
137   139    1
SMALL
USER_CHARGES


@<TRIPOS>ATOM
      1 CA         26.2602   -5.8997   -5.8797 C.3       0 UNK        -0.2020 
      2 C          26.6108   -5.2961   -4.5286 C.2       0 UNK         0.4855 
      3 O          25.7185   -5.0571   -3.7142 O.2       0 UNK        -0.5197 
      4 N          27.9024   -5.0334   -4.2865 N.am      1 UNK        -0.4892 
      5 CA         28.4247   -4.4155   -3.0614 C.3       1 UNK         0.0835 
      6 C6         29.9755   -4.4135   -3.0385 C.3       12 UNK        -0.0855 
      7 S7         30.6858   -4.8873   -1.4240 S.3       12 UNK        -0.2931 
      8 C8         30.5502   -3.3713   -0.4098 C.3       12 UNK         0.0378 
      9 C9         31.0315   -2.0988   -1.1005 C.ar      12 UNK        -0.0802 
     10 C10        32.2288   -2.0720   -1.8247 C.ar      12 UNK        -0.0944 
     11 C11        32.6197   -0.9204   -2.5213 C.ar      12 UNK        -0.0787 
     12 C12        31.8360    0.2331   -2.4154 C.ar      12 UNK        -0.0862 
     13 C13        30.6579    0.2322   -1.6632 C.ar      12 UNK        -0.0733 
     14 C14        30.2587   -0.9378   -1.0145 C.ar      12 UNK        -0.0832 
     15 C15        29.8097    1.4903   -1.5487 C.3       12 UNK         0.0240 
     16 S16        28.3909    1.4550   -2.6864 S.3       12 UNK        -0.2522 
     17 C17        29.2122    1.7945   -4.2754 C.3       12 UNK        -0.0967 
     18 CA         28.3152    1.6225   -5.5214 C.3       5 UNK         0.0660 
     19 N          27.8961    0.2369   -5.7591 N.am      5 UNK        -0.4015 
     20 C          27.4558   -0.1867   -6.9540 C.2       4 UNK         0.4946 
     21 O          27.3429    0.5455   -7.9372 O.2       4 UNK        -0.5353 
     22 CA         27.0131   -1.6490   -7.0668 C.3       4 UNK         0.0277 
     23 CB         28.2204   -2.6032   -7.0803 C.3       4 UNK        -0.1981 
     24 N          26.0797   -1.9955   -5.9950 N.am      4 UNK        -0.4209 
     25 C          24.7970   -1.5990   -5.9673 C.2       3 UNK         0.4942 
     26 O          24.2654   -0.9508   -6.8679 O.2       3 UNK        -0.5208 
     27 CA         23.9594   -1.9669   -4.7301 C.3       3 UNK         0.0250 
     28 CB         23.1132   -3.2213   -4.9995 C.3       3 UNK        -0.1990 
     29 N          24.7701   -2.1631   -3.5266 N.am      3 UNK        -0.4232 
     30 C          25.3555   -1.1601   -2.8544 C.2       2 UNK         0.4993 
     31 O          25.2422    0.0237   -3.1689 O.2       2 UNK        -0.5286 
     32 CA         26.2628   -1.5424   -1.6699 C.3       2 UNK         0.0209 
     33 CB         25.4469   -1.6483   -0.3725 C.3       2 UNK        -0.1931 
     34 N          27.0102   -2.7856   -1.8838 N.am      2 UNK        -0.4546 
     35 C          27.8530   -2.9919   -2.9052 C.2       1 UNK         0.5154 
     36 O          28.1230   -2.1342   -3.7505 O.2       1 UNK        -0.5181 
     37 C          27.1418    2.6242   -5.5830 C.2       5 UNK         0.5014 
     38 O          27.3459    3.7436   -6.0541 O.2       5 UNK        -0.5248 
     39 N          25.9252    2.2024   -5.1975 N.am      6 UNK        -0.4434 
     40 CA         24.6878    2.9697   -5.3958 C.3       6 UNK         0.0363 
     41 CB         23.5210    2.2765   -4.6766 C.3       6 UNK        -0.1936 
     42 C          24.3378    3.1971   -6.8798 C.2       6 UNK         0.5081 
     43 O          23.7508    4.2278   -7.2089 O.2       6 UNK        -0.5248 
     44 N          24.7290    2.2561   -7.7499 N.am      7 UNK        -0.4718 
     45 CA         24.6197    2.3562   -9.2083 C.3       7 UNK         0.0273 
     46 CB         24.4090    0.9448   -9.7846 C.3       7 UNK        -0.1935 
     47 C          25.8434    3.0392   -9.8545 C.2       7 UNK         0.5018 
     48 O          25.8886    3.1378  -11.0815 O.2       7 UNK        -0.5186 
     49 N          26.8080    3.4861   -9.0342 N.am      8 UNK        -0.4240 
     50 CA         28.0847    4.1129   -9.3944 C.3       8 UNK         0.0235 
     51 CB         27.8604    5.4593  -10.1166 C.3       8 UNK        -0.2000 
     52 C          29.0508    3.1769  -10.1490 C.2       8 UNK         0.4941 
     53 O          29.8979    3.6627  -10.9020 O.2       8 UNK        -0.5273 
     54 N          28.9348    1.8616   -9.9250 N.am      9 UNK        -0.4262 
     55 CA         29.8578    0.8500  -10.4360 C.3       9 UNK         0.0264 
     56 CB         29.0674   -0.4293  -10.7589 C.3       9 UNK        -0.1955 
     57 C          30.9469    0.5614   -9.3920 C.2       9 UNK         0.5031 
     58 O          30.7194    0.7415   -8.1926 O.2       9 UNK        -0.5390 
     59 N          32.1063    0.0876   -9.8632 N.am      10 UNK        -0.4204 
     60 CA         33.1936   -0.4001   -9.0130 C.3       10 UNK         0.0237 
     61 CB         34.4916   -0.4670   -9.8343 C.3       10 UNK        -0.1985 
     62 C          32.8447   -1.7822   -8.4383 C.2       10 UNK         0.4970 
     63 O          32.2492   -2.5992   -9.1453 O.2       10 UNK        -0.4914 
     64 N          33.2392   -2.0244   -7.1838 N.am      11 UNK        -0.4285 
     65 CA         33.0008   -3.2922   -6.4770 C.3       11 UNK         0.1007 
     66 C          33.9724   -4.4521   -6.8474 C.2       11 UNK         0.5703 
     67 N          35.0201   -4.2199   -7.6299 N.am      11 UNK        -0.7361 
     68 O          33.7593   -5.5884   -6.4312 O.2       11 UNK        -0.4986 
     69 C69        32.8715   -3.0767   -4.9483 C.3       12 UNK        -0.0947 
     70 S70        34.3891   -2.4847   -4.1165 S.3       12 UNK        -0.2240 
     71 C71        33.8679   -0.8807   -3.4071 C.3       12 UNK         0.0194 
     72 H72        25.6936   -5.1842   -6.4750 H         1 UNK         0.0906 
     73 H73        27.1489   -6.1831   -6.4432 H         1 UNK         0.0906 
     74 H74        25.6482   -6.7911   -5.7444 H         1 UNK         0.0906 
     75 H75        28.5880   -5.2374   -4.9992 H         1 UNK         0.3140 
     76 H76        28.0624   -5.0293   -2.2335 H         1 UNK         0.1085 
     77 H77        30.3935   -3.4652   -3.3781 H         1 UNK         0.0836 
     78 H78        30.3608   -5.1496   -3.7457 H         1 UNK         0.0836 
     79 H79        31.1280   -3.5109    0.5046 H         1 UNK         0.0731 
     80 H80        29.5096   -3.2659   -0.0990 H         1 UNK         0.0731 
     81 H81        32.8295   -2.9687   -1.8794 H         1 UNK         0.1312 
     82 H82        32.1375    1.1343   -2.9318 H         1 UNK         0.1406 
     83 H83        29.3368   -0.9422   -0.4490 H         1 UNK         0.1631 
     84 H84        30.4095    2.3823   -1.7368 H         1 UNK         0.0717 
     85 H85        29.4373    1.5854   -0.5277 H         1 UNK         0.0717 
     86 H86        29.6183    2.8074   -4.2438 H         1 UNK         0.0934 
     87 H87        30.0732    1.1330   -4.3742 H         1 UNK         0.0934 
     88 H88        28.9541    1.8848   -6.3685 H         1 UNK         0.0739 
     89 H89        27.9636   -0.4131   -4.9820 H         1 UNK         0.3093 
     90 H90        26.4946   -1.7638   -8.0217 H         1 UNK         0.0818 
     91 H91        28.8109   -2.5419   -6.1670 H         1 UNK         0.0819 
     92 H92        27.9060   -3.6380   -7.2108 H         1 UNK         0.0819 
     93 H93        28.8918   -2.3647   -7.9064 H         1 UNK         0.0819 
     94 H94        26.4717   -2.4432   -5.1770 H         1 UNK         0.3041 
     95 H95        23.2731   -1.1383   -4.5427 H         1 UNK         0.0784 
     96 H96        22.4508   -3.0661   -5.8522 H         1 UNK         0.0793 
     97 H97        23.7310   -4.0902   -5.2245 H         1 UNK         0.0793 
     98 H98        22.4853   -3.4684   -4.1433 H         1 UNK         0.0793 
     99 H99        24.9539   -3.1215   -3.2481 H         1 UNK         0.3024 
    100 H100       26.9905   -0.7398   -1.5480 H         1 UNK         0.1171 
    101 H101       26.0916   -1.8230    0.4891 H         1 UNK         0.0786 
    102 H102       24.8984   -0.7246   -0.1820 H         1 UNK         0.0786 
    103 H103       24.7172   -2.4577   -0.4178 H         1 UNK         0.0786 
    104 H104       26.8024   -3.5514   -1.2587 H         1 UNK         0.2977 
    105 H105       25.8357    1.3024   -4.7359 H         1 UNK         0.3127 
    106 H106       24.8317    3.9518   -4.9404 H         1 UNK         0.0770 
    107 H107       23.3528    1.2707   -5.0622 H         1 UNK         0.0814 
    108 H108       22.5934    2.8355   -4.8065 H         1 UNK         0.0814 
    109 H109       23.7040    2.2013   -3.6047 H         1 UNK         0.0814 
    110 H110       25.2087    1.4357   -7.3998 H         1 UNK         0.2983 
    111 H111       23.7453    2.9587   -9.4637 H         1 UNK         0.0947 
    112 H112       24.2528    0.9793  -10.8635 H         1 UNK         0.0806 
    113 H113       23.5339    0.4646   -9.3464 H         1 UNK         0.0806 
    114 H114       25.2689    0.3002   -9.6005 H         1 UNK         0.0806 
    115 H115       26.6724    3.3488   -8.0394 H         1 UNK         0.3000 
    116 H116       28.5791    4.3344   -8.4476 H         1 UNK         0.0850 
    117 H117       28.7993    6.0015  -10.2344 H         1 UNK         0.0810 
    118 H118       27.1854    6.1039   -9.5536 H         1 UNK         0.0810 
    119 H119       27.4404    5.3203  -11.1131 H         1 UNK         0.0810 
    120 H120       28.2665    1.5316   -9.2302 H         1 UNK         0.3040 
    121 H121       30.3310    1.2049  -11.3541 H         1 UNK         0.0766 
    122 H122       28.2843   -0.2355  -11.4921 H         1 UNK         0.0812 
    123 H123       28.5949   -0.8486   -9.8708 H         1 UNK         0.0812 
    124 H124       29.7185   -1.1996  -11.1739 H         1 UNK         0.0812 
    125 H125       32.2005   -0.0762  -10.8552 H         1 UNK         0.3205 
    126 H126       33.3376    0.3046   -8.1907 H         1 UNK         0.0754 
    127 H127       35.3294   -0.7924   -9.2163 H         1 UNK         0.0769 
    128 H128       34.7534    0.5096  -10.2424 H         1 UNK         0.0769 
    129 H129       34.4090   -1.1675  -10.6667 H         1 UNK         0.0769 
    130 H130       33.7505   -1.3214   -6.6714 H         1 UNK         0.2981 
    131 H131       32.0212   -3.6504   -6.8005 H         1 UNK         0.0541 
    132 H132       35.2038   -3.2934   -7.9776 H         1 UNK         0.3459 
    133 H133       35.6365   -4.9810   -7.8671 H         1 UNK         0.3459 
    134 H134       32.0575   -2.3750   -4.7629 H         1 UNK         0.0612 
    135 H135       32.5721   -4.0065   -4.4626 H         1 UNK         0.0612 
    136 H136       33.7078   -0.1888   -4.2355 H         1 UNK         0.0624 
    137 H137       34.6952   -0.4774   -2.8222 H         1 UNK         0.0624 
@<TRIPOS>BOND
     1    1    2 1    
     2    1   72 1    
     3    1   73 1    
     4    1   74 1    
     5    2    3 2    
     6    2    4 am   BACKBONE|DICT|INTERRES
     7    4    5 1    
     8    4   75 1    
     9    5    6 1    
    10    5   35 1    
    11    5   76 1    
    12    6    7 1    
    13    6   77 1    
    14    6   78 1    
    15    7    8 1    
    16    8    9 1    
    17    8   79 1    
    18    8   80 1    
    19    9   10 ar   
    20    9   14 ar   
    21   10   11 ar   
    22   10   81 1    
    23   11   12 ar   
    24   11   71 1    
    25   12   13 ar   
    26   12   82 1    
    27   13   14 ar   
    28   13   15 1    
    29   14   83 1    
    30   15   16 1    
    31   15   84 1    
    32   15   85 1    
    33   16   17 1    
    34   17   18 1    
    35   17   86 1    
    36   17   87 1    
    37   18   19 1    
    38   18   37 1    
    39   18   88 1    
    40   19   20 am   BACKBONE|DICT|INTERRES
    41   19   89 1    
    42   20   21 2    
    43   20   22 1    
    44   22   23 1    
    45   22   24 1    
    46   22   90 1    
    47   23   91 1    
    48   23   92 1    
    49   23   93 1    
    50   24   25 am   BACKBONE|DICT|INTERRES
    51   24   94 1    
    52   25   26 2    
    53   25   27 1    
    54   27   28 1    
    55   27   29 1    
    56   27   95 1    
    57   28   96 1    
    58   28   97 1    
    59   28   98 1    
    60   29   30 am   BACKBONE|DICT|INTERRES
    61   29   99 1    
    62   30   31 2    
    63   30   32 1    
    64   32   33 1    
    65   32   34 1    
    66   32  100 1    
    67   33  101 1    
    68   33  102 1    
    69   33  103 1    
    70   34   35 am   BACKBONE|DICT|INTERRES
    71   34  104 1    
    72   35   36 2    
    73   37   38 2    
    74   37   39 am   BACKBONE|DICT|INTERRES
    75   39   40 1    
    76   39  105 1    
    77   40   41 1    
    78   40   42 1    
    79   40  106 1    
    80   41  107 1    
    81   41  108 1    
    82   41  109 1    
    83   42   43 2    
    84   42   44 am   BACKBONE|DICT|INTERRES
    85   44   45 1    
    86   44  110 1    
    87   45   46 1    
    88   45   47 1    
    89   45  111 1    
    90   46  112 1    
    91   46  113 1    
    92   46  114 1    
    93   47   48 2    
    94   47   49 am   BACKBONE|DICT|INTERRES
    95   49   50 1    
    96   49  115 1    
    97   50   51 1    
    98   50   52 1    
    99   50  116 1    
   100   51  117 1    
   101   51  118 1    
   102   51  119 1    
   103   52   53 2    
   104   52   54 am   BACKBONE|DICT|INTERRES
   105   54   55 1    
   106   54  120 1    
   107   55   56 1    
   108   55   57 1    
   109   55  121 1    
   110   56  122 1    
   111   56  123 1    
   112   56  124 1    
   113   57   58 2    
   114   57   59 am   BACKBONE|DICT|INTERRES
   115   59   60 1    
   116   59  125 1    
   117   60   61 1    
   118   60   62 1    
   119   60  126 1    
   120   61  127 1    
   121   61  128 1    
   122   61  129 1    
   123   62   63 2    
   124   62   64 am   BACKBONE|DICT|INTERRES
   125   64   65 1    
   126   64  130 1    
   127   65   66 1    
   128   65   69 1    
   129   65  131 1    
   130   66   67 am   BACKBONE|DICT|INTERRES
   131   66   68 2    
   132   67  132 1    
   133   67  133 1    
   134   69   70 1    
   135   69  134 1    
   136   69  135 1    
   137   70   71 1    
   138   71  136 1    
   139   71  137 1    
@<TRIPOS>SUBSTRUCTURE
     1 UNK         1 GROUP             0       ****    0 ROOT    
