@<TRIPOS>MOLECULE
3R137
137   139    1
SMALL
USER_CHARGES


@<TRIPOS>ATOM
      1 CA         29.1935   -0.4118   -2.6141 C.3       0 UNK        -0.2020 
      2 C          29.2264   -0.6583   -1.1085 C.2       0 UNK         0.4855 
      3 O          29.5924    0.2438   -0.3585 O.2       0 UNK        -0.5197 
      4 N          28.8579   -1.8474   -0.6100 N.am      1 UNK        -0.4892 
      5 CA         28.3687   -3.0174   -1.3574 C.3       1 UNK         0.0835 
      6 C6         28.4899   -4.3257   -0.5322 C.3       12 UNK        -0.0855 
      7 S7         30.1612   -4.6146    0.1444 S.3       12 UNK        -0.2931 
      8 C8         30.9009   -5.6919   -1.1240 C.3       12 UNK         0.0378 
      9 C9         31.1343   -4.9465   -2.4298 C.ar      12 UNK        -0.0802 
     10 C10        32.1190   -3.9557   -2.5019 C.ar      12 UNK        -0.0944 
     11 C11        32.3379   -3.2614   -3.6941 C.ar      12 UNK        -0.0787 
     12 C12        31.5710   -3.5702   -4.8203 C.ar      12 UNK        -0.0862 
     13 C13        30.5714   -4.5447   -4.7573 C.ar      12 UNK        -0.0733 
     14 C14        30.3643   -5.2387   -3.5611 C.ar      12 UNK        -0.0832 
     15 C15        29.7145   -4.8423   -5.9809 C.3       12 UNK         0.0240 
     16 S16        28.0070   -4.2341   -5.7897 S.3       12 UNK        -0.2522 
     17 C17        28.2398   -2.4329   -5.6060 C.3       12 UNK        -0.0967 
     18 CA         27.4598   -1.6272   -6.6679 C.3       5 UNK         0.0660 
     19 N          26.0105   -1.7962   -6.5352 N.am      5 UNK        -0.4015 
     20 C          25.1149   -1.4096   -7.4533 C.2       4 UNK         0.4946 
     21 O          25.4107   -0.8697   -8.5202 O.2       4 UNK        -0.5353 
     22 CA         23.6352   -1.6261   -7.0970 C.3       4 UNK         0.0277 
     23 CB         23.2655   -3.1176   -7.1551 C.3       4 UNK        -0.1981 
     24 N          23.2819   -1.0759   -5.7848 N.am      4 UNK        -0.4209 
     25 C          23.3491    0.2256   -5.4702 C.2       3 UNK         0.4942 
     26 O          23.7200    1.1001   -6.2489 O.2       3 UNK        -0.5208 
     27 CA         22.9583    0.6339   -4.0427 C.3       3 UNK         0.0250 
     28 CB         21.4439    0.8825   -3.9543 C.3       3 UNK        -0.1990 
     29 N          23.3604   -0.3073   -2.9947 N.am      3 UNK        -0.4232 
     30 C          24.6056   -0.7450   -2.7597 C.2       2 UNK         0.4993 
     31 O          25.5731   -0.4964   -3.4868 O.2       2 UNK        -0.5286 
     32 CA         24.7733   -1.5584   -1.4615 C.3       2 UNK         0.0209 
     33 CB         23.8290   -2.7816   -1.4081 C.3       2 UNK        -0.1931 
     34 N          26.1638   -1.9439   -1.1906 N.am      2 UNK        -0.4546 
     35 C          26.9124   -2.8477   -1.8403 C.2       1 UNK         0.5154 
     36 O          26.5028   -3.5450   -2.7671 O.2       1 UNK        -0.5181 
     37 C          27.8621   -0.1416   -6.6249 C.2       5 UNK         0.5014 
     38 O          28.7608    0.2559   -7.3697 O.2       5 UNK        -0.5248 
     39 N          27.1855    0.6494   -5.7772 N.am      6 UNK        -0.4434 
     40 CA         27.3803    2.0952   -5.6656 C.3       6 UNK         0.0363 
     41 CB         26.6137    2.6331   -4.4479 C.3       6 UNK        -0.1936 
     42 C          26.9837    2.8484   -6.9472 C.2       6 UNK         0.5081 
     43 O          27.7666    3.6694   -7.4233 O.2       6 UNK        -0.5248 
     44 N          25.8045    2.5372   -7.5069 N.am      7 UNK        -0.4718 
     45 CA         25.2968    3.1164   -8.7567 C.3       7 UNK         0.0273 
     46 CB         23.8272    2.7167   -8.9612 C.3       7 UNK        -0.1935 
     47 C          26.1327    2.7249   -9.9846 C.2       7 UNK         0.5018 
     48 O          26.3284    3.5568  -10.8712 O.2       7 UNK        -0.5186 
     49 N          26.6373    1.4831  -10.0009 N.am      8 UNK        -0.4240 
     50 CA         27.5795    0.9876  -11.0075 C.3       8 UNK         0.0235 
     51 CB         27.6453   -0.5462  -10.9178 C.3       8 UNK        -0.2000 
     52 C          28.9939    1.5850  -10.8750 C.2       8 UNK         0.4941 
     53 O          29.7735    1.4698  -11.8215 O.2       8 UNK        -0.5273 
     54 N          29.3082    2.1730   -9.7081 N.am      9 UNK        -0.4262 
     55 CA         30.6235    2.6585   -9.2722 C.3       9 UNK         0.0264 
     56 CB         31.0670    3.8812  -10.1023 C.3       9 UNK        -0.1955 
     57 C          31.6737    1.5309   -9.2439 C.2       9 UNK         0.5031 
     58 O          32.8333    1.7501   -9.6020 O.2       9 UNK        -0.5390 
     59 N          31.2399    0.3335   -8.8234 N.am      10 UNK        -0.4204 
     60 CA         32.0057   -0.9144   -8.8871 C.3       10 UNK         0.0237 
     61 CB         31.0768   -2.0888   -8.5441 C.3       10 UNK        -0.1985 
     62 C          33.2651   -0.9324   -8.0045 C.2       10 UNK         0.4970 
     63 O          34.1967   -1.6788   -8.3073 O.2       10 UNK        -0.4914 
     64 N          33.2770   -0.1114   -6.9482 N.am      11 UNK        -0.4285 
     65 CA         34.4301    0.0908   -6.0589 C.3       11 UNK         0.1007 
     66 C          35.4921    1.0843   -6.6160 C.2       11 UNK         0.5703 
     67 N          35.2741    1.7379   -7.7529 N.am      11 UNK        -0.7361 
     68 O          36.5452    1.2580   -6.0072 O.2       11 UNK        -0.4986 
     69 C69        34.0017    0.4661   -4.6111 C.3       12 UNK        -0.0947 
     70 S70        32.6283   -0.5360   -3.9451 S.3       12 UNK        -0.2240 
     71 C71        33.3986   -2.1764   -3.7807 C.3       12 UNK         0.0194 
     72 H72        29.7307   -1.1895   -3.1553 H         1 UNK         0.0906 
     73 H73        28.1682   -0.3631   -2.9759 H         1 UNK         0.0906 
     74 H74        29.6720    0.5375   -2.8543 H         1 UNK         0.0906 
     75 H75        28.9382   -1.9904    0.3872 H         1 UNK         0.3140 
     76 H76        28.9818   -3.1349   -2.2513 H         1 UNK         0.1085 
     77 H77        27.7972   -4.3074    0.3119 H         1 UNK         0.0836 
     78 H78        28.1988   -5.1873   -1.1368 H         1 UNK         0.0836 
     79 H79        30.2669   -6.5669   -1.2764 H         1 UNK         0.0731 
     80 H80        31.8554   -6.0684   -0.7532 H         1 UNK         0.0731 
     81 H81        32.7068   -3.7213   -1.6247 H         1 UNK         0.1312 
     82 H82        31.7465   -3.0322   -5.7410 H         1 UNK         0.1406 
     83 H83        29.5912   -5.9938   -3.5109 H         1 UNK         0.1631 
     84 H84        29.6871   -5.9202   -6.1463 H         1 UNK         0.0717 
     85 H85        30.1511   -4.4082   -6.8809 H         1 UNK         0.0717 
     86 H86        27.9136   -2.1524   -4.6050 H         1 UNK         0.0934 
     87 H87        29.3026   -2.1961   -5.6512 H         1 UNK         0.0934 
     88 H88        27.7460   -2.0026   -7.6529 H         1 UNK         0.0739 
     89 H89        25.6848   -2.2073   -5.6718 H         1 UNK         0.3093 
     90 H90        23.0394   -1.1004   -7.8465 H         1 UNK         0.0818 
     91 H91        23.5195   -3.5436   -8.1269 H         1 UNK         0.0819 
     92 H92        23.7913   -3.6996   -6.3971 H         1 UNK         0.0819 
     93 H93        22.1954   -3.2661   -7.0092 H         1 UNK         0.0819 
     94 H94        22.9717   -1.7255   -5.0771 H         1 UNK         0.3041 
     95 H95        23.4636    1.5774   -3.8296 H         1 UNK         0.0784 
     96 H96        21.1208    1.5971   -4.7132 H         1 UNK         0.0793 
     97 H97        20.8731   -0.0345   -4.1066 H         1 UNK         0.0793 
     98 H98        21.1640    1.2964   -2.9854 H         1 UNK         0.0793 
     99 H99        22.6359   -0.5702   -2.3423 H         1 UNK         0.3024 
    100 H100       24.4949   -0.8885   -0.6459 H         1 UNK         0.1171 
    101 H101       24.0191   -3.3901   -0.5239 H         1 UNK         0.0786 
    102 H102       22.7829   -2.4777   -1.3625 H         1 UNK         0.0786 
    103 H103       23.9394   -3.4226   -2.2834 H         1 UNK         0.0786 
    104 H104       26.6255   -1.4143   -0.4639 H         1 UNK         0.2977 
    105 H105       26.4858    0.2347   -5.1680 H         1 UNK         0.3127 
    106 H106       28.4450    2.2700   -5.4958 H         1 UNK         0.0770 
    107 H107       25.5385    2.4933   -4.5549 H         1 UNK         0.0814 
    108 H108       26.7920    3.7010   -4.3164 H         1 UNK         0.0814 
    109 H109       26.9263    2.1352   -3.5298 H         1 UNK         0.0814 
    110 H110       25.1876    1.8769   -7.0355 H         1 UNK         0.2983 
    111 H111       25.3442    4.2035   -8.6621 H         1 UNK         0.0947 
    112 H112       23.4290    3.1428   -9.8831 H         1 UNK         0.0806 
    113 H113       23.2024    3.0746   -8.1428 H         1 UNK         0.0806 
    114 H114       23.7101    1.6337   -9.0224 H         1 UNK         0.0806 
    115 H115       26.3654    0.8345   -9.2681 H         1 UNK         0.3000 
    116 H116       27.2008    1.2588  -11.9953 H         1 UNK         0.0850 
    117 H117       28.3175   -0.9561  -11.6728 H         1 UNK         0.0810 
    118 H118       26.6651   -0.9954  -11.0786 H         1 UNK         0.0810 
    119 H119       28.0080   -0.8759   -9.9437 H         1 UNK         0.0810 
    120 H120       28.5874    2.2116   -8.9977 H         1 UNK         0.3040 
    121 H121       30.4991    2.9860   -8.2390 H         1 UNK         0.0766 
    122 H122       31.2685    3.6155  -11.1404 H         1 UNK         0.0812 
    123 H123       31.9803    4.3176   -9.6962 H         1 UNK         0.0812 
    124 H124       30.3049    4.6604  -10.0962 H         1 UNK         0.0812 
    125 H125       30.2877    0.2705   -8.4657 H         1 UNK         0.3205 
    126 H126       32.3406   -1.0379   -9.9192 H         1 UNK         0.0754 
    127 H127       30.2558   -2.1656   -9.2573 H         1 UNK         0.0769 
    128 H128       30.6451   -1.9749   -7.5513 H         1 UNK         0.0769 
    129 H129       31.6149   -3.0375   -8.5661 H         1 UNK         0.0769 
    130 H130       32.4688    0.4648   -6.7699 H         1 UNK         0.2981 
    131 H131       34.9610   -0.8594   -5.9941 H         1 UNK         0.0541 
    132 H132       34.4202    1.6068   -8.2834 H         1 UNK         0.3459 
    133 H133       35.9792    2.3711   -8.0945 H         1 UNK         0.3459 
    134 H134       33.6826    1.5092   -4.5736 H         1 UNK         0.0612 
    135 H135       34.8498    0.3834   -3.9289 H         1 UNK         0.0612 
    136 H136       34.0451   -2.1833   -2.9019 H         1 UNK         0.0624 
    137 H137       34.0354   -2.3874   -4.6390 H         1 UNK         0.0624 
@<TRIPOS>BOND
     1    1    2 1    
     2    1   72 1    
     3    1   73 1    
     4    1   74 1    
     5    2    3 2    
     6    2    4 am   BACKBONE|DICT|INTERRES
     7    4    5 1    
     8    4   75 1    
     9    5    6 1    
    10    5   35 1    
    11    5   76 1    
    12    6    7 1    
    13    6   77 1    
    14    6   78 1    
    15    7    8 1    
    16    8    9 1    
    17    8   79 1    
    18    8   80 1    
    19    9   10 ar   
    20    9   14 ar   
    21   10   11 ar   
    22   10   81 1    
    23   11   12 ar   
    24   11   71 1    
    25   12   13 ar   
    26   12   82 1    
    27   13   14 ar   
    28   13   15 1    
    29   14   83 1    
    30   15   16 1    
    31   15   84 1    
    32   15   85 1    
    33   16   17 1    
    34   17   18 1    
    35   17   86 1    
    36   17   87 1    
    37   18   19 1    
    38   18   37 1    
    39   18   88 1    
    40   19   20 am   BACKBONE|DICT|INTERRES
    41   19   89 1    
    42   20   21 2    
    43   20   22 1    
    44   22   23 1    
    45   22   24 1    
    46   22   90 1    
    47   23   91 1    
    48   23   92 1    
    49   23   93 1    
    50   24   25 am   BACKBONE|DICT|INTERRES
    51   24   94 1    
    52   25   26 2    
    53   25   27 1    
    54   27   28 1    
    55   27   29 1    
    56   27   95 1    
    57   28   96 1    
    58   28   97 1    
    59   28   98 1    
    60   29   30 am   BACKBONE|DICT|INTERRES
    61   29   99 1    
    62   30   31 2    
    63   30   32 1    
    64   32   33 1    
    65   32   34 1    
    66   32  100 1    
    67   33  101 1    
    68   33  102 1    
    69   33  103 1    
    70   34   35 am   BACKBONE|DICT|INTERRES
    71   34  104 1    
    72   35   36 2    
    73   37   38 2    
    74   37   39 am   BACKBONE|DICT|INTERRES
    75   39   40 1    
    76   39  105 1    
    77   40   41 1    
    78   40   42 1    
    79   40  106 1    
    80   41  107 1    
    81   41  108 1    
    82   41  109 1    
    83   42   43 2    
    84   42   44 am   BACKBONE|DICT|INTERRES
    85   44   45 1    
    86   44  110 1    
    87   45   46 1    
    88   45   47 1    
    89   45  111 1    
    90   46  112 1    
    91   46  113 1    
    92   46  114 1    
    93   47   48 2    
    94   47   49 am   BACKBONE|DICT|INTERRES
    95   49   50 1    
    96   49  115 1    
    97   50   51 1    
    98   50   52 1    
    99   50  116 1    
   100   51  117 1    
   101   51  118 1    
   102   51  119 1    
   103   52   53 2    
   104   52   54 am   BACKBONE|DICT|INTERRES
   105   54   55 1    
   106   54  120 1    
   107   55   56 1    
   108   55   57 1    
   109   55  121 1    
   110   56  122 1    
   111   56  123 1    
   112   56  124 1    
   113   57   58 2    
   114   57   59 am   BACKBONE|DICT|INTERRES
   115   59   60 1    
   116   59  125 1    
   117   60   61 1    
   118   60   62 1    
   119   60  126 1    
   120   61  127 1    
   121   61  128 1    
   122   61  129 1    
   123   62   63 2    
   124   62   64 am   BACKBONE|DICT|INTERRES
   125   64   65 1    
   126   64  130 1    
   127   65   66 1    
   128   65   69 1    
   129   65  131 1    
   130   66   67 am   BACKBONE|DICT|INTERRES
   131   66   68 2    
   132   67  132 1    
   133   67  133 1    
   134   69   70 1    
   135   69  134 1    
   136   69  135 1    
   137   70   71 1    
   138   71  136 1    
   139   71  137 1    
@<TRIPOS>SUBSTRUCTURE
     1 UNK         1 GROUP             0       ****    0 ROOT    
