@<TRIPOS>MOLECULE
3R137
137   139    1
SMALL
USER_CHARGES


@<TRIPOS>ATOM
      1 CA         32.7852    0.2793    0.0848 C.3       0 UNK        -0.2020 
      2 C          31.6933   -0.5164   -0.6139 C.2       0 UNK         0.4855 
      3 O          31.9976   -1.4499   -1.3546 O.2       0 UNK        -0.5197 
      4 N          30.4279   -0.1539   -0.3838 N.am      1 UNK        -0.4892 
      5 CA         29.2397   -0.7343   -1.0065 C.3       1 UNK         0.0835 
      6 C6         28.9193   -2.1734   -0.5074 C.3       12 UNK        -0.0855 
      7 S7         27.8639   -3.1214   -1.6693 S.3       12 UNK        -0.2931 
      8 C8         28.8938   -4.5621   -2.0889 C.3       12 UNK         0.0378 
      9 C9         29.4400   -4.4971   -3.5093 C.ar      12 UNK        -0.0802 
     10 C10        30.6285   -3.8116   -3.7809 C.ar      12 UNK        -0.0944 
     11 C11        31.1960   -3.8555   -5.0586 C.ar      12 UNK        -0.0787 
     12 C12        30.5539   -4.5748   -6.0730 C.ar      12 UNK        -0.0862 
     13 C13        29.3618   -5.2603   -5.8169 C.ar      12 UNK        -0.0733 
     14 C14        28.8023   -5.2031   -4.5359 C.ar      12 UNK        -0.0832 
     15 C15        28.7431   -6.1568   -6.8863 C.3       12 UNK         0.0240 
     16 S16        28.1178   -5.2505   -8.3369 S.3       12 UNK        -0.2522 
     17 C17        26.6002   -4.4833   -7.6741 C.3       12 UNK        -0.0967 
     18 CA         26.3302   -3.0701   -8.2510 C.3       5 UNK         0.0660 
     19 N          25.0198   -2.5638   -7.8306 N.am      5 UNK        -0.4015 
     20 C          24.4611   -1.4160   -8.2448 C.2       4 UNK         0.4946 
     21 O          24.9489   -0.6806   -9.1029 O.2       4 UNK        -0.5353 
     22 CA         23.1594   -0.9888   -7.5423 C.3       4 UNK         0.0277 
     23 CB         21.9398   -1.6142   -8.2379 C.3       4 UNK        -0.1981 
     24 N          23.1291   -1.3056   -6.1078 N.am      4 UNK        -0.4209 
     25 C          24.0098   -0.8459   -5.2081 C.2       3 UNK         0.4942 
     26 O          24.9594   -0.1111   -5.4912 O.2       3 UNK        -0.5208 
     27 CA         23.8330   -1.3226   -3.7629 C.3       3 UNK         0.0250 
     28 CB         24.2408   -2.8023   -3.6180 C.3       3 UNK        -0.1990 
     29 N          24.6756   -0.4991   -2.9010 N.am      3 UNK        -0.4232 
     30 C          24.4932   -0.2829   -1.5951 C.2       2 UNK         0.4993 
     31 O          23.5537   -0.7495   -0.9479 O.2       2 UNK        -0.5286 
     32 CA         25.5878    0.5358   -0.8956 C.3       2 UNK         0.0209 
     33 CB         25.2716    0.8195    0.5890 C.3       2 UNK        -0.1931 
     34 N          26.8418   -0.2044   -1.0227 N.am      2 UNK        -0.4546 
     35 C          28.0765    0.2683   -0.8310 C.2       1 UNK         0.5154 
     36 O          28.3161    1.4382   -0.5174 O.2       1 UNK        -0.5181 
     37 C          27.4509   -2.0762   -7.8891 C.2       5 UNK         0.5014 
     38 O          28.2138   -1.6682   -8.7654 O.2       5 UNK        -0.5248 
     39 N          27.4909   -1.6764   -6.6113 N.am      6 UNK        -0.4434 
     40 CA         28.4522   -0.7198   -6.0718 C.3       6 UNK         0.0363 
     41 CB         28.2979   -0.6428   -4.5498 C.3       6 UNK        -0.1936 
     42 C          28.3333    0.6736   -6.6993 C.2       6 UNK         0.5081 
     43 O          29.3594    1.2932   -6.9694 O.2       6 UNK        -0.5248 
     44 N          27.0977    1.1278   -6.9455 N.am      7 UNK        -0.4718 
     45 CA         26.7989    2.3840   -7.6336 C.3       7 UNK         0.0273 
     46 CB         25.2916    2.6715   -7.5523 C.3       7 UNK        -0.1935 
     47 C          27.2822    2.3892   -9.0937 C.2       7 UNK         0.5018 
     48 O          27.8694    3.3810   -9.5267 O.2       7 UNK        -0.5186 
     49 N          27.0513    1.2823   -9.8151 N.am      8 UNK        -0.4240 
     50 CA         27.4967    1.0894  -11.1971 C.3       8 UNK         0.0235 
     51 CB         26.7916   -0.1348  -11.8034 C.3       8 UNK        -0.2000 
     52 C          29.0235    0.9542  -11.3187 C.2       8 UNK         0.4941 
     53 O          29.6164    1.5784  -12.1994 O.2       8 UNK        -0.5273 
     54 N          29.6316    0.1482  -10.4379 N.am      9 UNK        -0.4262 
     55 CA         31.0745   -0.1090  -10.4068 C.3       9 UNK         0.0264 
     56 CB         31.3227   -1.4376   -9.6762 C.3       9 UNK        -0.1955 
     57 C          31.9029    1.0256   -9.7732 C.2       9 UNK         0.5031 
     58 O          33.1211    1.0389   -9.9569 O.2       9 UNK        -0.5390 
     59 N          31.2439    1.9386   -9.0441 N.am      10 UNK        -0.4204 
     60 CA         31.8072    3.0434   -8.2581 C.3       10 UNK         0.0237 
     61 CB         32.5289    4.0685   -9.1596 C.3       10 UNK        -0.1985 
     62 C          32.6691    2.5392   -7.0832 C.2       10 UNK         0.4970 
     63 O          33.7732    3.0410   -6.8618 O.2       10 UNK        -0.4914 
     64 N          32.1438    1.5452   -6.3577 N.am      11 UNK        -0.4285 
     65 CA         32.7651    0.9495   -5.1672 C.3       11 UNK         0.1007 
     66 C          32.6580    1.8965   -3.9437 C.2       11 UNK         0.5703 
     67 N          33.7378    2.0743   -3.1946 N.am      11 UNK        -0.7361 
     68 O          31.5964    2.4429   -3.6504 O.2       11 UNK        -0.4986 
     69 C69        32.1666   -0.4426   -4.8403 C.3       12 UNK        -0.0947 
     70 S70        32.4065   -1.6265   -6.2045 S.3       12 UNK        -0.2240 
     71 C71        32.5498   -3.2106   -5.3253 C.3       12 UNK         0.0194 
     72 H72        33.5104    0.6401   -0.6438 H         1 UNK         0.0906 
     73 H73        32.3846    1.1405    0.6191 H         1 UNK         0.0906 
     74 H74        33.3090   -0.3532    0.8009 H         1 UNK         0.0906 
     75 H75        30.2212    0.6649    0.1774 H         1 UNK         0.3140 
     76 H76        29.4566   -0.7828   -2.0724 H         1 UNK         0.1085 
     77 H77        29.8463   -2.7242   -0.3504 H         1 UNK         0.0836 
     78 H78        28.4371   -2.1470    0.4717 H         1 UNK         0.0836 
     79 H79        28.2829   -5.4583   -1.9700 H         1 UNK         0.0731 
     80 H80        29.7154   -4.6794   -1.3817 H         1 UNK         0.0731 
     81 H81        31.1332   -3.2802   -2.9858 H         1 UNK         0.1312 
     82 H82        31.0034   -4.6334   -7.0552 H         1 UNK         0.1406 
     83 H83        27.8966   -5.7540   -4.3209 H         1 UNK         0.1631 
     84 H84        27.9359   -6.7624   -6.4712 H         1 UNK         0.0717 
     85 H85        29.5021   -6.8632   -7.2255 H         1 UNK         0.0717 
     86 H86        25.7690   -5.1472   -7.9173 H         1 UNK         0.0934 
     87 H87        26.6495   -4.4523   -6.5841 H         1 UNK         0.0934 
     88 H88        26.3049   -3.1473   -9.3403 H         1 UNK         0.0739 
     89 H89        24.5296   -3.1013   -7.1318 H         1 UNK         0.3093 
     90 H90        23.0826    0.0963   -7.6363 H         1 UNK         0.0818 
     91 H91        21.0068   -1.2365   -7.8192 H         1 UNK         0.0819 
     92 H92        21.9338   -1.3749   -9.3025 H         1 UNK         0.0819 
     93 H93        21.9333   -2.7012   -8.1485 H         1 UNK         0.0819 
     94 H94        22.3780   -1.9028   -5.7915 H         1 UNK         0.3041 
     95 H95        22.7855   -1.1924   -3.4823 H         1 UNK         0.0784 
     96 H96        23.6306   -3.4489   -4.2494 H         1 UNK         0.0793 
     97 H97        25.2845   -2.9620   -3.8926 H         1 UNK         0.0793 
     98 H98        24.1145   -3.1483   -2.5919 H         1 UNK         0.0793 
     99 H99        25.4224   -0.0262   -3.3945 H         1 UNK         0.3024 
    100 H100       25.6781    1.4884   -1.4226 H         1 UNK         0.1171 
    101 H101       26.0282    1.4571    1.0461 H         1 UNK         0.0786 
    102 H102       24.3151    1.3334    0.6929 H         1 UNK         0.0786 
    103 H103       25.2145   -0.1012    1.1709 H         1 UNK         0.0786 
    104 H104       26.7480   -1.1827   -1.2764 H         1 UNK         0.2977 
    105 H105       26.7923   -2.0212   -5.9720 H         1 UNK         0.3127 
    106 H106       29.4508   -1.0969   -6.2994 H         1 UNK         0.0770 
    107 H107       27.2729   -0.4317   -4.2514 H         1 UNK         0.0814 
    108 H108       28.9211    0.1494   -4.1338 H         1 UNK         0.0814 
    109 H109       28.5981   -1.5838   -4.0910 H         1 UNK         0.0814 
    110 H110       26.3056    0.5765   -6.6232 H         1 UNK         0.2983 
    111 H111       27.3275    3.1821   -7.1076 H         1 UNK         0.0947 
    112 H112       25.0524    3.6307   -8.0131 H         1 UNK         0.0806 
    113 H113       24.9508    2.7130   -6.5175 H         1 UNK         0.0806 
    114 H114       24.7071    1.9080   -8.0657 H         1 UNK         0.0806 
    115 H115       26.5211    0.5234   -9.3951 H         1 UNK         0.3000 
    116 H116       27.1967    1.9691  -11.7707 H         1 UNK         0.0850 
    117 H117       27.1029   -0.2950  -12.8365 H         1 UNK         0.0810 
    118 H118       25.7091   -0.0055  -11.8065 H         1 UNK         0.0810 
    119 H119       27.0150   -1.0465  -11.2477 H         1 UNK         0.0810 
    120 H120       29.0620   -0.3780   -9.7752 H         1 UNK         0.3040 
    121 H121       31.4258   -0.2227  -11.4346 H         1 UNK         0.0766 
    122 H122       30.9170   -1.4143   -8.6651 H         1 UNK         0.0812 
    123 H123       32.3884   -1.6574   -9.5989 H         1 UNK         0.0812 
    124 H124       30.8546   -2.2712  -10.1997 H         1 UNK         0.0812 
    125 H125       30.2551    1.7773   -8.8924 H         1 UNK         0.3205 
    126 H126       30.9540    3.5527   -7.8072 H         1 UNK         0.0754 
    127 H127       32.8241    4.9490   -8.5877 H         1 UNK         0.0769 
    128 H128       31.8813    4.4091   -9.9676 H         1 UNK         0.0769 
    129 H129       33.4335    3.6547   -9.6058 H         1 UNK         0.0769 
    130 H130       31.1939    1.2515   -6.5688 H         1 UNK         0.2981 
    131 H131       33.8244    0.8055   -5.3904 H         1 UNK         0.0541 
    132 H132       34.6128    1.6312   -3.4273 H         1 UNK         0.3459 
    133 H133       33.6833    2.6880   -2.3974 H         1 UNK         0.3459 
    134 H134       31.1033   -0.3709   -4.6203 H         1 UNK         0.0612 
    135 H135       32.6373   -0.8460   -3.9426 H         1 UNK         0.0612 
    136 H136       33.1495   -3.8862   -5.9368 H         1 UNK         0.0624 
    137 H137       33.1074   -3.0765   -4.3973 H         1 UNK         0.0624 
@<TRIPOS>BOND
     1    1    2 1    
     2    1   72 1    
     3    1   73 1    
     4    1   74 1    
     5    2    3 2    
     6    2    4 am   BACKBONE|DICT|INTERRES
     7    4    5 1    
     8    4   75 1    
     9    5    6 1    
    10    5   35 1    
    11    5   76 1    
    12    6    7 1    
    13    6   77 1    
    14    6   78 1    
    15    7    8 1    
    16    8    9 1    
    17    8   79 1    
    18    8   80 1    
    19    9   10 ar   
    20    9   14 ar   
    21   10   11 ar   
    22   10   81 1    
    23   11   12 ar   
    24   11   71 1    
    25   12   13 ar   
    26   12   82 1    
    27   13   14 ar   
    28   13   15 1    
    29   14   83 1    
    30   15   16 1    
    31   15   84 1    
    32   15   85 1    
    33   16   17 1    
    34   17   18 1    
    35   17   86 1    
    36   17   87 1    
    37   18   19 1    
    38   18   37 1    
    39   18   88 1    
    40   19   20 am   BACKBONE|DICT|INTERRES
    41   19   89 1    
    42   20   21 2    
    43   20   22 1    
    44   22   23 1    
    45   22   24 1    
    46   22   90 1    
    47   23   91 1    
    48   23   92 1    
    49   23   93 1    
    50   24   25 am   BACKBONE|DICT|INTERRES
    51   24   94 1    
    52   25   26 2    
    53   25   27 1    
    54   27   28 1    
    55   27   29 1    
    56   27   95 1    
    57   28   96 1    
    58   28   97 1    
    59   28   98 1    
    60   29   30 am   BACKBONE|DICT|INTERRES
    61   29   99 1    
    62   30   31 2    
    63   30   32 1    
    64   32   33 1    
    65   32   34 1    
    66   32  100 1    
    67   33  101 1    
    68   33  102 1    
    69   33  103 1    
    70   34   35 am   BACKBONE|DICT|INTERRES
    71   34  104 1    
    72   35   36 2    
    73   37   38 2    
    74   37   39 am   BACKBONE|DICT|INTERRES
    75   39   40 1    
    76   39  105 1    
    77   40   41 1    
    78   40   42 1    
    79   40  106 1    
    80   41  107 1    
    81   41  108 1    
    82   41  109 1    
    83   42   43 2    
    84   42   44 am   BACKBONE|DICT|INTERRES
    85   44   45 1    
    86   44  110 1    
    87   45   46 1    
    88   45   47 1    
    89   45  111 1    
    90   46  112 1    
    91   46  113 1    
    92   46  114 1    
    93   47   48 2    
    94   47   49 am   BACKBONE|DICT|INTERRES
    95   49   50 1    
    96   49  115 1    
    97   50   51 1    
    98   50   52 1    
    99   50  116 1    
   100   51  117 1    
   101   51  118 1    
   102   51  119 1    
   103   52   53 2    
   104   52   54 am   BACKBONE|DICT|INTERRES
   105   54   55 1    
   106   54  120 1    
   107   55   56 1    
   108   55   57 1    
   109   55  121 1    
   110   56  122 1    
   111   56  123 1    
   112   56  124 1    
   113   57   58 2    
   114   57   59 am   BACKBONE|DICT|INTERRES
   115   59   60 1    
   116   59  125 1    
   117   60   61 1    
   118   60   62 1    
   119   60  126 1    
   120   61  127 1    
   121   61  128 1    
   122   61  129 1    
   123   62   63 2    
   124   62   64 am   BACKBONE|DICT|INTERRES
   125   64   65 1    
   126   64  130 1    
   127   65   66 1    
   128   65   69 1    
   129   65  131 1    
   130   66   67 am   BACKBONE|DICT|INTERRES
   131   66   68 2    
   132   67  132 1    
   133   67  133 1    
   134   69   70 1    
   135   69  134 1    
   136   69  135 1    
   137   70   71 1    
   138   71  136 1    
   139   71  137 1    
@<TRIPOS>SUBSTRUCTURE
     1 UNK         1 GROUP             0       ****    0 ROOT    
