@<TRIPOS>MOLECULE
3R137
137   139    1
SMALL
USER_CHARGES


@<TRIPOS>ATOM
      1 CA         24.8830   -5.6665    0.9825 C.3       0 UNK        -0.2020 
      2 C          25.7843   -4.4418    1.0300 C.2       0 UNK         0.4855 
      3 O          25.8539   -3.7732    2.0614 O.2       0 UNK        -0.5197 
      4 N          26.4758   -4.1428   -0.0785 N.am      1 UNK        -0.4892 
      5 CA         27.3758   -2.9874   -0.2161 C.3       1 UNK         0.0835 
      6 C6         28.3286   -3.1581   -1.4298 C.3       12 UNK        -0.0855 
      7 S7         29.9767   -2.4475   -1.1048 S.3       12 UNK        -0.2931 
      8 C8         31.0735   -3.7969   -1.6418 C.3       12 UNK         0.0378 
      9 C9         31.1984   -3.8345   -3.1574 C.ar      12 UNK        -0.0802 
     10 C10        32.1113   -2.9927   -3.7950 C.ar      12 UNK        -0.0944 
     11 C11        32.2471   -3.0083   -5.1853 C.ar      12 UNK        -0.0787 
     12 C12        31.4645   -3.8879   -5.9425 C.ar      12 UNK        -0.0862 
     13 C13        30.5525   -4.7467   -5.3147 C.ar      12 UNK        -0.0733 
     14 C14        30.4218   -4.7105   -3.9217 C.ar      12 UNK        -0.0832 
     15 C15        29.7522   -5.7627   -6.1240 C.3       12 UNK         0.0240 
     16 S16        28.6793   -5.0149   -7.3921 S.3       12 UNK        -0.2522 
     17 C17        27.4157   -4.1508   -6.3955 C.3       12 UNK        -0.0967 
     18 CA         26.9800   -2.8233   -7.0659 C.3       5 UNK         0.0660 
     19 N          25.6559   -2.3696   -6.6220 N.am      5 UNK        -0.4015 
     20 C          24.9933   -1.3294   -7.1534 C.2       4 UNK         0.4946 
     21 O          25.4294   -0.6385   -8.0738 O.2       4 UNK        -0.5353 
     22 CA         23.6704   -0.9276   -6.4964 C.3       4 UNK         0.0277 
     23 CB         22.8446   -2.1268   -5.9910 C.3       4 UNK        -0.1981 
     24 N          24.0252   -0.0694   -5.3766 N.am      4 UNK        -0.4209 
     25 C          23.8474    1.2500   -5.2822 C.2       3 UNK         0.4942 
     26 O          23.1883    1.9113   -6.0856 O.2       3 UNK        -0.5208 
     27 CA         24.5455    1.9411   -4.0864 C.3       3 UNK         0.0250 
     28 CB         24.0894    3.4003   -3.9001 C.3       3 UNK        -0.1990 
     29 N          24.3924    1.2268   -2.8099 N.am      3 UNK        -0.4232 
     30 C          24.9512    0.0529   -2.4823 C.2       2 UNK         0.4993 
     31 O          25.6897   -0.5849   -3.2425 O.2       2 UNK        -0.5286 
     32 CA         24.5465   -0.5359   -1.1203 C.3       2 UNK         0.0209 
     33 CB         23.0715   -0.9758   -1.1366 C.3       2 UNK        -0.1931 
     34 N          25.3684   -1.6989   -0.7916 N.am      2 UNK        -0.4546 
     35 C          26.6126   -1.6458   -0.2990 C.2       1 UNK         0.5154 
     36 O          27.1530   -0.6037    0.0762 O.2       1 UNK        -0.5181 
     37 C          28.0568   -1.7298   -6.9182 C.2       5 UNK         0.5014 
     38 O          28.8492   -1.5425   -7.8413 O.2       5 UNK        -0.5248 
     39 N          28.0284   -0.9872   -5.7995 N.am      6 UNK        -0.4434 
     40 CA         28.9678    0.1045   -5.5296 C.3       6 UNK         0.0363 
     41 CB         28.8050    0.5889   -4.0814 C.3       6 UNK        -0.1936 
     42 C          28.8573    1.2779   -6.5208 C.2       6 UNK         0.5081 
     43 O          29.8632    1.9335   -6.8009 O.2       6 UNK        -0.5248 
     44 N          27.6456    1.5043   -7.0473 N.am      7 UNK        -0.4718 
     45 CA         27.3729    2.4851   -8.0949 C.3       7 UNK         0.0273 
     46 CB         25.9041    2.9309   -8.0214 C.3       7 UNK        -0.1935 
     47 C          27.7103    1.9255   -9.4844 C.2       7 UNK         0.5018 
     48 O          28.3658    2.6172  -10.2621 O.2       7 UNK        -0.5186 
     49 N          27.2841    0.6845   -9.7666 N.am      8 UNK        -0.4240 
     50 CA         27.4955   -0.0086  -11.0425 C.3       8 UNK         0.0235 
     51 CB         26.7128   -1.3311  -11.0513 C.3       8 UNK        -0.2000 
     52 C          28.9768   -0.2563  -11.3707 C.2       8 UNK         0.4941 
     53 O          29.3825   -0.0507  -12.5151 O.2       8 UNK        -0.5273 
     54 N          29.7625   -0.6612  -10.3633 N.am      9 UNK        -0.4262 
     55 CA         31.2158   -0.8226  -10.4634 C.3       9 UNK         0.0264 
     56 CB         31.6922   -1.7672   -9.3475 C.3       9 UNK        -0.1955 
     57 C          31.9779    0.5143  -10.3943 C.2       9 UNK         0.5031 
     58 O          33.1730    0.5319  -10.6914 O.2       9 UNK        -0.5390 
     59 N          31.2910    1.5925   -9.9826 N.am      10 UNK        -0.4204 
     60 CA         31.7881    2.9584   -9.7716 C.3       10 UNK         0.0237 
     61 CB         32.2169    3.5981  -11.1091 C.3       10 UNK        -0.1985 
     62 C          32.8741    3.0711   -8.6818 C.2       10 UNK         0.4970 
     63 O          33.6335    4.0420   -8.6783 O.2       10 UNK        -0.4914 
     64 N          32.9266    2.0891   -7.7748 N.am      11 UNK        -0.4285 
     65 CA         33.8451    2.0465   -6.6315 C.3       11 UNK         0.1007 
     66 C          33.3840    2.9173   -5.4265 C.2       11 UNK         0.5703 
     67 N          32.1109    3.2857   -5.3235 N.am      11 UNK        -0.7361 
     68 O          34.2014    3.2784   -4.5829 O.2       11 UNK        -0.4986 
     69 C69        34.1677    0.5844   -6.2226 C.3       12 UNK        -0.0947 
     70 S70        32.6912   -0.3504   -5.7103 S.3       12 UNK        -0.2240 
     71 C71        33.2494   -2.0726   -5.8458 C.3       12 UNK         0.0194 
     72 H72        25.1831   -6.3826    1.7471 H         1 UNK         0.0906 
     73 H73        23.8493   -5.3788    1.1726 H         1 UNK         0.0906 
     74 H74        24.9231   -6.1673    0.0154 H         1 UNK         0.0906 
     75 H75        26.3847   -4.7347   -0.8924 H         1 UNK         0.3140 
     76 H76        27.9747   -2.9498    0.6974 H         1 UNK         0.1085 
     77 H77        28.4562   -4.2175   -1.6539 H         1 UNK         0.0836 
     78 H78        27.9204   -2.7177   -2.3427 H         1 UNK         0.0836 
     79 H79        30.7182   -4.7524   -1.2527 H         1 UNK         0.0731 
     80 H80        32.0592   -3.6418   -1.2001 H         1 UNK         0.0731 
     81 H81        32.7123   -2.3116   -3.2076 H         1 UNK         0.1312 
     82 H82        31.5680   -3.9127   -7.0187 H         1 UNK         0.1406 
     83 H83        29.7272   -5.3770   -3.4291 H         1 UNK         0.1631 
     84 H84        29.1393   -6.3882   -5.4731 H         1 UNK         0.0717 
     85 H85        30.4520   -6.4370   -6.6193 H         1 UNK         0.0717 
     86 H86        26.5640   -4.8271   -6.3078 H         1 UNK         0.0934 
     87 H87        27.7754   -3.9838   -5.3782 H         1 UNK         0.0934 
     88 H88        26.8730   -3.0153   -8.1354 H         1 UNK         0.0739 
     89 H89        25.2348   -2.8747   -5.8566 H         1 UNK         0.3093 
     90 H90        23.0802   -0.3816   -7.2356 H         1 UNK         0.0818 
     91 H91        21.8692   -1.7975   -5.6324 H         1 UNK         0.0819 
     92 H92        22.6652   -2.8454   -6.7920 H         1 UNK         0.0819 
     93 H93        23.3289   -2.6553   -5.1694 H         1 UNK         0.0819 
     94 H94        24.6169   -0.4842   -4.6580 H         1 UNK         0.3041 
     95 H95        25.6098    1.9630   -4.3283 H         1 UNK         0.0784 
     96 H96        24.2628    3.9853   -4.8045 H         1 UNK         0.0793 
     97 H97        24.6381    3.8890   -3.0947 H         1 UNK         0.0793 
     98 H98        23.0251    3.4631   -3.6697 H         1 UNK         0.0793 
     99 H99        23.7658    1.6560   -2.1439 H         1 UNK         0.3024 
    100 H100       24.6867    0.2313   -0.3550 H         1 UNK         0.1171 
    101 H101       22.7805   -1.4183   -0.1835 H         1 UNK         0.0786 
    102 H102       22.4050   -0.1304   -1.3113 H         1 UNK         0.0786 
    103 H103       22.8769   -1.7104   -1.9194 H         1 UNK         0.0786 
    104 H104       25.0206   -2.5976   -1.0903 H         1 UNK         0.2977 
    105 H105       27.3386   -1.1825   -5.0865 H         1 UNK         0.3127 
    106 H106       29.9656   -0.3151   -5.6335 H         1 UNK         0.0770 
    107 H107       27.8203    1.0211   -3.9057 H         1 UNK         0.0814 
    108 H108       29.5452    1.3545   -3.8448 H         1 UNK         0.0814 
    109 H109       28.9462   -0.2263   -3.3710 H         1 UNK         0.0814 
    110 H110       26.8941    0.8738   -6.8080 H         1 UNK         0.2983 
    111 H111       27.9990    3.3649   -7.9282 H         1 UNK         0.0947 
    112 H112       25.6847    3.6752   -8.7880 H         1 UNK         0.0806 
    113 H113       25.6756    3.3841   -7.0569 H         1 UNK         0.0806 
    114 H114       25.2154    2.0984   -8.1705 H         1 UNK         0.0806 
    115 H115       26.7159    0.1947   -9.0772 H         1 UNK         0.3000 
    116 H116       27.0886    0.6305  -11.8289 H         1 UNK         0.0850 
    117 H117       26.8178   -1.8411  -12.0098 H         1 UNK         0.0810 
    118 H118       25.6481   -1.1638  -10.8872 H         1 UNK         0.0810 
    119 H119       27.0678   -2.0125  -10.2783 H         1 UNK         0.0810 
    120 H120       29.3449   -0.8669   -9.4547 H         1 UNK         0.3040 
    121 H121       31.4518   -1.2852  -11.4240 H         1 UNK         0.0766 
    122 H122       31.4949   -1.3507   -8.3593 H         1 UNK         0.0812 
    123 H123       32.7653   -1.9494   -9.4178 H         1 UNK         0.0812 
    124 H124       31.1926   -2.7344   -9.4056 H         1 UNK         0.0812 
    125 H125       30.3041    1.4695   -9.7960 H         1 UNK         0.3205 
    126 H126       30.9361    3.5265   -9.3949 H         1 UNK         0.0754 
    127 H127       32.4418    4.6580  -10.9841 H         1 UNK         0.0769 
    128 H128       31.4244    3.5233  -11.8539 H         1 UNK         0.0769 
    129 H129       33.1088    3.1223  -11.5180 H         1 UNK         0.0769 
    130 H130       32.2283    1.3608   -7.8050 H         1 UNK         0.2981 
    131 H131       34.7900    2.4839   -6.9595 H         1 UNK         0.0541 
    132 H132       31.4190    2.9330   -5.9761 H         1 UNK         0.3459 
    133 H133       31.8248    3.8576   -4.5458 H         1 UNK         0.3459 
    134 H134       34.8968    0.5617   -5.4107 H         1 UNK         0.0612 
    135 H135       34.6332    0.0652   -7.0618 H         1 UNK         0.0612 
    136 H136       34.2197   -2.1794   -5.3585 H         1 UNK         0.0624 
    137 H137       33.3942   -2.3279   -6.8961 H         1 UNK         0.0624 
@<TRIPOS>BOND
     1    1    2 1    
     2    1   72 1    
     3    1   73 1    
     4    1   74 1    
     5    2    3 2    
     6    2    4 am   BACKBONE|DICT|INTERRES
     7    4    5 1    
     8    4   75 1    
     9    5    6 1    
    10    5   35 1    
    11    5   76 1    
    12    6    7 1    
    13    6   77 1    
    14    6   78 1    
    15    7    8 1    
    16    8    9 1    
    17    8   79 1    
    18    8   80 1    
    19    9   10 ar   
    20    9   14 ar   
    21   10   11 ar   
    22   10   81 1    
    23   11   12 ar   
    24   11   71 1    
    25   12   13 ar   
    26   12   82 1    
    27   13   14 ar   
    28   13   15 1    
    29   14   83 1    
    30   15   16 1    
    31   15   84 1    
    32   15   85 1    
    33   16   17 1    
    34   17   18 1    
    35   17   86 1    
    36   17   87 1    
    37   18   19 1    
    38   18   37 1    
    39   18   88 1    
    40   19   20 am   BACKBONE|DICT|INTERRES
    41   19   89 1    
    42   20   21 2    
    43   20   22 1    
    44   22   23 1    
    45   22   24 1    
    46   22   90 1    
    47   23   91 1    
    48   23   92 1    
    49   23   93 1    
    50   24   25 am   BACKBONE|DICT|INTERRES
    51   24   94 1    
    52   25   26 2    
    53   25   27 1    
    54   27   28 1    
    55   27   29 1    
    56   27   95 1    
    57   28   96 1    
    58   28   97 1    
    59   28   98 1    
    60   29   30 am   BACKBONE|DICT|INTERRES
    61   29   99 1    
    62   30   31 2    
    63   30   32 1    
    64   32   33 1    
    65   32   34 1    
    66   32  100 1    
    67   33  101 1    
    68   33  102 1    
    69   33  103 1    
    70   34   35 am   BACKBONE|DICT|INTERRES
    71   34  104 1    
    72   35   36 2    
    73   37   38 2    
    74   37   39 am   BACKBONE|DICT|INTERRES
    75   39   40 1    
    76   39  105 1    
    77   40   41 1    
    78   40   42 1    
    79   40  106 1    
    80   41  107 1    
    81   41  108 1    
    82   41  109 1    
    83   42   43 2    
    84   42   44 am   BACKBONE|DICT|INTERRES
    85   44   45 1    
    86   44  110 1    
    87   45   46 1    
    88   45   47 1    
    89   45  111 1    
    90   46  112 1    
    91   46  113 1    
    92   46  114 1    
    93   47   48 2    
    94   47   49 am   BACKBONE|DICT|INTERRES
    95   49   50 1    
    96   49  115 1    
    97   50   51 1    
    98   50   52 1    
    99   50  116 1    
   100   51  117 1    
   101   51  118 1    
   102   51  119 1    
   103   52   53 2    
   104   52   54 am   BACKBONE|DICT|INTERRES
   105   54   55 1    
   106   54  120 1    
   107   55   56 1    
   108   55   57 1    
   109   55  121 1    
   110   56  122 1    
   111   56  123 1    
   112   56  124 1    
   113   57   58 2    
   114   57   59 am   BACKBONE|DICT|INTERRES
   115   59   60 1    
   116   59  125 1    
   117   60   61 1    
   118   60   62 1    
   119   60  126 1    
   120   61  127 1    
   121   61  128 1    
   122   61  129 1    
   123   62   63 2    
   124   62   64 am   BACKBONE|DICT|INTERRES
   125   64   65 1    
   126   64  130 1    
   127   65   66 1    
   128   65   69 1    
   129   65  131 1    
   130   66   67 am   BACKBONE|DICT|INTERRES
   131   66   68 2    
   132   67  132 1    
   133   67  133 1    
   134   69   70 1    
   135   69  134 1    
   136   69  135 1    
   137   70   71 1    
   138   71  136 1    
   139   71  137 1    
@<TRIPOS>SUBSTRUCTURE
     1 UNK         1 GROUP             0       ****    0 ROOT    
