@<TRIPOS>MOLECULE
3R137
137   139    1
SMALL
USER_CHARGES


@<TRIPOS>ATOM
      1 CA         27.3547   -7.2324   -4.9313 C.3       0 UNK        -0.2020 
      2 C          27.8612   -6.2616   -3.8745 C.2       0 UNK         0.4855 
      3 O          29.0068   -5.8230   -3.9619 O.2       0 UNK        -0.5197 
      4 N          27.0119   -5.9478   -2.8843 N.am      1 UNK        -0.4892 
      5 CA         27.1992   -4.9703   -1.8016 C.3       1 UNK         0.0835 
      6 C6         28.5209   -5.1530   -1.0050 C.3       12 UNK        -0.0855 
      7 S7         28.5379   -4.2257    0.5722 S.3       12 UNK        -0.2931 
      8 C8         30.2249   -3.5366    0.6257 C.3       12 UNK         0.0378 
      9 C9         30.5569   -2.6095   -0.5404 C.ar      12 UNK        -0.0802 
     10 C10        31.3867   -3.0644   -1.5691 C.ar      12 UNK        -0.0944 
     11 C11        31.7812   -2.2091   -2.5998 C.ar      12 UNK        -0.0787 
     12 C12        31.3438   -0.8822   -2.5972 C.ar      12 UNK        -0.0862 
     13 C13        30.5012   -0.4120   -1.5841 C.ar      12 UNK        -0.0733 
     14 C14        30.1045   -1.2846   -0.5610 C.ar      12 UNK        -0.0832 
     15 C15        30.0786    1.0532   -1.5548 C.3       12 UNK         0.0240 
     16 S16        28.6392    1.3997   -2.6165 S.3       12 UNK        -0.2522 
     17 C17        29.4199    1.8496   -4.2017 C.3       12 UNK        -0.0967 
     18 CA         28.5283    1.6496   -5.4523 C.3       5 UNK         0.0660 
     19 N          28.0341    0.2795   -5.6139 N.am      5 UNK        -0.4015 
     20 C          27.6314   -0.2195   -6.7917 C.2       4 UNK         0.4946 
     21 O          27.6440    0.4224   -7.8429 O.2       4 UNK        -0.5353 
     22 CA         27.0978   -1.6592   -6.7991 C.3       4 UNK         0.0277 
     23 CB         28.2388   -2.6741   -6.6212 C.3       4 UNK        -0.1981 
     24 N          26.0725   -1.8731   -5.7771 N.am      4 UNK        -0.4209 
     25 C          24.8484   -1.3210   -5.8139 C.2       3 UNK         0.4942 
     26 O          24.4559   -0.5934   -6.7240 O.2       3 UNK        -0.5208 
     27 CA         23.9041   -1.5920   -4.6269 C.3       3 UNK         0.0250 
     28 CB         23.0556   -2.8455   -4.8926 C.3       3 UNK        -0.1990 
     29 N          24.5994   -1.7395   -3.3477 N.am      3 UNK        -0.4232 
     30 C          25.4152   -0.8237   -2.8080 C.2       2 UNK         0.4993 
     31 O          25.5793    0.2998   -3.2801 O.2       2 UNK        -0.5286 
     32 CA         26.2285   -1.2439   -1.5726 C.3       2 UNK         0.0209 
     33 CB         25.6099   -0.6607   -0.2930 C.3       2 UNK        -0.1931 
     34 N          26.4193   -2.6888   -1.4068 N.am      2 UNK        -0.4546 
     35 C          26.9889   -3.5206   -2.2930 C.2       1 UNK         0.5154 
     36 O          27.3065   -3.1819   -3.4356 O.2       1 UNK        -0.5181 
     37 C          27.4054    2.7001   -5.5841 C.2       5 UNK         0.5014 
     38 O          27.6640    3.7702   -6.1359 O.2       5 UNK        -0.5248 
     39 N          26.1744    2.3739   -5.1564 N.am      6 UNK        -0.4434 
     40 CA         24.9796    3.2007   -5.3695 C.3       6 UNK         0.0363 
     41 CB         23.7938    2.6251   -4.5809 C.3       6 UNK        -0.1936 
     42 C          24.6102    3.3581   -6.8563 C.2       6 UNK         0.5081 
     43 O          24.1978    4.4441   -7.2634 O.2       6 UNK        -0.5248 
     44 N          24.7986    2.2924   -7.6479 N.am      7 UNK        -0.4718 
     45 CA         24.6479    2.2980   -9.1077 C.3       7 UNK         0.0273 
     46 CB         24.4194    0.8564   -9.5924 C.3       7 UNK        -0.1935 
     47 C          25.8455    2.9270   -9.8476 C.2       7 UNK         0.5018 
     48 O          25.7717    3.0842  -11.0672 O.2       7 UNK        -0.5186 
     49 N          26.9191    3.2572   -9.1137 N.am      8 UNK        -0.4240 
     50 CA         28.2021    3.7883   -9.5835 C.3       8 UNK         0.0235 
     51 CB         28.0308    5.1920  -10.2034 C.3       8 UNK        -0.2000 
     52 C          28.9633    2.8070  -10.4960 C.2       8 UNK         0.4941 
     53 O          29.6257    3.2379  -11.4430 O.2       8 UNK        -0.5273 
     54 N          28.8723    1.5048  -10.1906 N.am      9 UNK        -0.4262 
     55 CA         29.6608    0.4530  -10.8318 C.3       9 UNK         0.0264 
     56 CB         28.9928   -0.9075  -10.5698 C.3       9 UNK        -0.1955 
     57 C          31.1020    0.4563  -10.2970 C.2       9 UNK         0.5031 
     58 O          31.3524    0.9427   -9.1893 O.2       9 UNK        -0.5390 
     59 N          32.0240   -0.1300  -11.0706 N.am      10 UNK        -0.4204 
     60 CA         33.4471   -0.2685  -10.7410 C.3       10 UNK         0.0237 
     61 CB         34.2381   -0.5095  -12.0412 C.3       10 UNK        -0.1985 
     62 C          33.7051   -1.3569   -9.6767 C.2       10 UNK         0.4970 
     63 O          34.4405   -2.3121   -9.9336 O.2       10 UNK        -0.4914 
     64 N          33.0748   -1.2007   -8.5078 N.am      11 UNK        -0.4285 
     65 CA         33.2262   -2.0621   -7.3311 C.3       11 UNK         0.1007 
     66 C          34.6564   -1.9784   -6.7277 C.2       11 UNK         0.5703 
     67 N          35.2332   -3.1028   -6.3257 N.am      11 UNK        -0.7361 
     68 O          35.2293   -0.8986   -6.5913 O.2       11 UNK        -0.4986 
     69 C69        32.1298   -1.7453   -6.2782 C.3       12 UNK        -0.0947 
     70 S70        31.7957   -3.1728   -5.1940 S.3       12 UNK        -0.2240 
     71 C71        32.7120   -2.7168   -3.6899 C.3       12 UNK         0.0194 
     72 H72        27.3831   -6.7620   -5.9139 H         1 UNK         0.0906 
     73 H73        27.9874   -8.1192   -4.9601 H         1 UNK         0.0906 
     74 H74        26.3308   -7.5526   -4.7390 H         1 UNK         0.0906 
     75 H75        26.0904   -6.3629   -2.9076 H         1 UNK         0.3140 
     76 H76        26.3814   -5.1860   -1.1115 H         1 UNK         0.1085 
     77 H77        29.3745   -4.8677   -1.6175 H         1 UNK         0.0836 
     78 H78        28.6657   -6.2078   -0.7672 H         1 UNK         0.0836 
     79 H79        30.9377   -4.3616    0.6718 H         1 UNK         0.0731 
     80 H80        30.3451   -2.9883    1.5612 H         1 UNK         0.0731 
     81 H81        31.7435   -4.0854   -1.5585 H         1 UNK         0.1312 
     82 H82        31.6782   -0.2156   -3.3780 H         1 UNK         0.1406 
     83 H83        29.4701   -0.9261    0.2385 H         1 UNK         0.1631 
     84 H84        30.9145    1.6920   -1.8440 H         1 UNK         0.0717 
     85 H85        29.8249    1.3421   -0.5337 H         1 UNK         0.0717 
     86 H86        29.7579    2.8858   -4.1377 H         1 UNK         0.0934 
     87 H87        30.3258    1.2594   -4.3283 H         1 UNK         0.0934 
     88 H88        29.1875    1.8346   -6.3047 H         1 UNK         0.0739 
     89 H89        27.9620   -0.2820   -4.7773 H         1 UNK         0.3093 
     90 H90        26.6403   -1.8362   -7.7750 H         1 UNK         0.0818 
     91 H91        28.9901   -2.5610   -7.4033 H         1 UNK         0.0819 
     92 H92        28.7460   -2.5547   -5.6628 H         1 UNK         0.0819 
     93 H93        27.8705   -3.6988   -6.6726 H         1 UNK         0.0819 
     94 H94        26.3469   -2.4220   -4.9659 H         1 UNK         0.3041 
     95 H95        23.2324   -0.7364   -4.5378 H         1 UNK         0.0784 
     96 H96        22.5077   -2.7525   -5.8315 H         1 UNK         0.0793 
     97 H97        23.6714   -3.7433   -4.9621 H         1 UNK         0.0793 
     98 H98        22.3189   -3.0018   -4.1043 H         1 UNK         0.0793 
     99 H99        24.5280   -2.6354   -2.8890 H         1 UNK         0.3024 
    100 H100       27.2248   -0.8198   -1.6930 H         1 UNK         0.1171 
    101 H101       26.2417   -0.8494    0.5752 H         1 UNK         0.0786 
    102 H102       25.4930    0.4211   -0.3757 H         1 UNK         0.0786 
    103 H103       24.6241   -1.0821   -0.0927 H         1 UNK         0.0786 
    104 H104       26.2057   -3.0551   -0.4896 H         1 UNK         0.2977 
    105 H105       26.0427    1.5110   -4.6304 H         1 UNK         0.3127 
    106 H106       25.1948    4.1968   -4.9768 H         1 UNK         0.0770 
    107 H107       23.5388    1.6204   -4.9180 H         1 UNK         0.0814 
    108 H108       22.9053    3.2460   -4.7023 H         1 UNK         0.0814 
    109 H109       24.0123    2.5765   -3.5140 H         1 UNK         0.0814 
    110 H110       25.0823    1.4121   -7.2308 H         1 UNK         0.2983 
    111 H111       23.7655    2.8878   -9.3655 H         1 UNK         0.0947 
    112 H112       25.2698    0.2147   -9.3577 H         1 UNK         0.0806 
    113 H113       24.2719    0.8213  -10.6726 H         1 UNK         0.0806 
    114 H114       23.5332    0.4195   -9.1321 H         1 UNK         0.0806 
    115 H115       26.8688    3.0812   -8.1181 H         1 UNK         0.3000 
    116 H116       28.8213    3.9005   -8.6923 H         1 UNK         0.0850 
    117 H117       28.9996    5.6457  -10.4157 H         1 UNK         0.0810 
    118 H118       27.5022    5.8623   -9.5256 H         1 UNK         0.0810 
    119 H119       27.4772    5.1570  -11.1421 H         1 UNK         0.0810 
    120 H120       28.3501    1.2269   -9.3608 H         1 UNK         0.3040 
    121 H121       29.6800    0.6352  -11.9085 H         1 UNK         0.0766 
    122 H122       27.9472   -0.9034  -10.8787 H         1 UNK         0.0812 
    123 H123       29.0278   -1.1765   -9.5140 H         1 UNK         0.0812 
    124 H124       29.4914   -1.7039  -11.1233 H         1 UNK         0.0812 
    125 H125       31.7279   -0.5409  -11.9447 H         1 UNK         0.3205 
    126 H126       33.7949    0.6760  -10.3167 H         1 UNK         0.0754 
    127 H127       35.3088   -0.5734  -11.8419 H         1 UNK         0.0769 
    128 H128       34.0928    0.3052  -12.7511 H         1 UNK         0.0769 
    129 H129       33.9409   -1.4384  -12.5300 H         1 UNK         0.0769 
    130 H130       32.4812   -0.3823   -8.4054 H         1 UNK         0.2981 
    131 H131       33.0691   -3.0821   -7.6887 H         1 UNK         0.0541 
    132 H132       36.1564   -3.0646   -5.9234 H         1 UNK         0.3459 
    133 H133       34.7624   -3.9892   -6.4185 H         1 UNK         0.3459 
    134 H134       32.3742   -0.8573   -5.6928 H         1 UNK         0.0612 
    135 H135       31.1876   -1.5150   -6.7780 H         1 UNK         0.0612 
    136 H136       33.4733   -1.9679   -3.9114 H         1 UNK         0.0624 
    137 H137       33.2544   -3.5967   -3.3407 H         1 UNK         0.0624 
@<TRIPOS>BOND
     1    1    2 1    
     2    1   72 1    
     3    1   73 1    
     4    1   74 1    
     5    2    3 2    
     6    2    4 am   BACKBONE|DICT|INTERRES
     7    4    5 1    
     8    4   75 1    
     9    5    6 1    
    10    5   35 1    
    11    5   76 1    
    12    6    7 1    
    13    6   77 1    
    14    6   78 1    
    15    7    8 1    
    16    8    9 1    
    17    8   79 1    
    18    8   80 1    
    19    9   10 ar   
    20    9   14 ar   
    21   10   11 ar   
    22   10   81 1    
    23   11   12 ar   
    24   11   71 1    
    25   12   13 ar   
    26   12   82 1    
    27   13   14 ar   
    28   13   15 1    
    29   14   83 1    
    30   15   16 1    
    31   15   84 1    
    32   15   85 1    
    33   16   17 1    
    34   17   18 1    
    35   17   86 1    
    36   17   87 1    
    37   18   19 1    
    38   18   37 1    
    39   18   88 1    
    40   19   20 am   BACKBONE|DICT|INTERRES
    41   19   89 1    
    42   20   21 2    
    43   20   22 1    
    44   22   23 1    
    45   22   24 1    
    46   22   90 1    
    47   23   91 1    
    48   23   92 1    
    49   23   93 1    
    50   24   25 am   BACKBONE|DICT|INTERRES
    51   24   94 1    
    52   25   26 2    
    53   25   27 1    
    54   27   28 1    
    55   27   29 1    
    56   27   95 1    
    57   28   96 1    
    58   28   97 1    
    59   28   98 1    
    60   29   30 am   BACKBONE|DICT|INTERRES
    61   29   99 1    
    62   30   31 2    
    63   30   32 1    
    64   32   33 1    
    65   32   34 1    
    66   32  100 1    
    67   33  101 1    
    68   33  102 1    
    69   33  103 1    
    70   34   35 am   BACKBONE|DICT|INTERRES
    71   34  104 1    
    72   35   36 2    
    73   37   38 2    
    74   37   39 am   BACKBONE|DICT|INTERRES
    75   39   40 1    
    76   39  105 1    
    77   40   41 1    
    78   40   42 1    
    79   40  106 1    
    80   41  107 1    
    81   41  108 1    
    82   41  109 1    
    83   42   43 2    
    84   42   44 am   BACKBONE|DICT|INTERRES
    85   44   45 1    
    86   44  110 1    
    87   45   46 1    
    88   45   47 1    
    89   45  111 1    
    90   46  112 1    
    91   46  113 1    
    92   46  114 1    
    93   47   48 2    
    94   47   49 am   BACKBONE|DICT|INTERRES
    95   49   50 1    
    96   49  115 1    
    97   50   51 1    
    98   50   52 1    
    99   50  116 1    
   100   51  117 1    
   101   51  118 1    
   102   51  119 1    
   103   52   53 2    
   104   52   54 am   BACKBONE|DICT|INTERRES
   105   54   55 1    
   106   54  120 1    
   107   55   56 1    
   108   55   57 1    
   109   55  121 1    
   110   56  122 1    
   111   56  123 1    
   112   56  124 1    
   113   57   58 2    
   114   57   59 am   BACKBONE|DICT|INTERRES
   115   59   60 1    
   116   59  125 1    
   117   60   61 1    
   118   60   62 1    
   119   60  126 1    
   120   61  127 1    
   121   61  128 1    
   122   61  129 1    
   123   62   63 2    
   124   62   64 am   BACKBONE|DICT|INTERRES
   125   64   65 1    
   126   64  130 1    
   127   65   66 1    
   128   65   69 1    
   129   65  131 1    
   130   66   67 am   BACKBONE|DICT|INTERRES
   131   66   68 2    
   132   67  132 1    
   133   67  133 1    
   134   69   70 1    
   135   69  134 1    
   136   69  135 1    
   137   70   71 1    
   138   71  136 1    
   139   71  137 1    
@<TRIPOS>SUBSTRUCTURE
     1 UNK         1 GROUP             0       ****    0 ROOT    
