@<TRIPOS>MOLECULE
3R137
137   139    1
SMALL
USER_CHARGES


@<TRIPOS>ATOM
      1 CA         23.3361   -5.7178   -2.2754 C.3       0 UNK        -0.2020 
      2 C          24.4504   -4.6957   -2.1193 C.2       0 UNK         0.4855 
      3 O          24.2889   -3.5547   -2.5558 O.2       0 UNK        -0.5197 
      4 N          25.5657   -5.0924   -1.4878 N.am      1 UNK        -0.4892 
      5 CA         26.8195   -4.3513   -1.2450 C.3       1 UNK         0.0835 
      6 C6         27.5596   -3.9245   -2.5391 C.3       12 UNK        -0.0855 
      7 S7         28.0154   -5.3036   -3.6446 S.3       12 UNK        -0.2931 
      8 C8         28.5148   -4.4175   -5.1643 C.3       12 UNK         0.0378 
      9 C9         29.7227   -3.5175   -4.9423 C.ar      12 UNK        -0.0802 
     10 C10        31.0106   -3.9659   -5.2406 C.ar      12 UNK        -0.0944 
     11 C11        32.1154   -3.1370   -5.0247 C.ar      12 UNK        -0.0787 
     12 C12        31.9269   -1.8628   -4.4780 C.ar      12 UNK        -0.0862 
     13 C13        30.6440   -1.4003   -4.1656 C.ar      12 UNK        -0.0733 
     14 C14        29.5480   -2.2272   -4.4380 C.ar      12 UNK        -0.0832 
     15 C15        30.4891   -0.0155   -3.5302 C.3       12 UNK         0.0240 
     16 S16        28.8956    0.2680   -2.6685 S.3       12 UNK        -0.2522 
     17 C17        28.0922    1.4593   -3.7894 C.3       12 UNK        -0.0967 
     18 CA         27.5972    0.8146   -5.1053 C.3       5 UNK         0.0660 
     19 N          26.5256   -0.1671   -4.9000 N.am      5 UNK        -0.4015 
     20 C          26.0264   -0.9500   -5.8694 C.2       4 UNK         0.4946 
     21 O          26.5326   -1.0322   -6.9888 O.2       4 UNK        -0.5353 
     22 CA         24.7081   -1.6970   -5.5996 C.3       4 UNK         0.0277 
     23 CB         24.8839   -3.2193   -5.7077 C.3       4 UNK        -0.1981 
     24 N          24.0607   -1.3565   -4.3282 N.am      4 UNK        -0.4209 
     25 C          23.4942   -0.1711   -4.0541 C.2       3 UNK         0.4942 
     26 O          23.5224    0.7887   -4.8261 O.2       3 UNK        -0.5208 
     27 CA         22.8235   -0.0190   -2.6799 C.3       3 UNK         0.0250 
     28 CB         21.4154   -0.6350   -2.6969 C.3       3 UNK        -0.1990 
     29 N          23.6079   -0.6232   -1.6010 N.am      3 UNK        -0.4232 
     30 C          24.7529   -0.1182   -1.1174 C.2       2 UNK         0.4993 
     31 O          25.2644    0.9269   -1.5175 O.2       2 UNK        -0.5286 
     32 CA         25.4683   -0.9531   -0.0503 C.3       2 UNK         0.0209 
     33 CB         24.6867   -0.9976    1.2751 C.3       2 UNK        -0.1931 
     34 N          25.6673   -2.2953   -0.5820 N.am      2 UNK        -0.4546 
     35 C          26.6793   -3.1213   -0.3186 C.2       1 UNK         0.5154 
     36 O          27.5050   -2.9290    0.5750 O.2       1 UNK        -0.5181 
     37 C          27.2113    1.9020   -6.1301 C.2       5 UNK         0.5014 
     38 O          28.1036    2.4307   -6.7910 O.2       5 UNK        -0.5248 
     39 N          25.9079    2.1794   -6.3000 N.am      6 UNK        -0.4434 
     40 CA         25.3878    3.0472   -7.3604 C.3       6 UNK         0.0363 
     41 CB         23.8948    3.3126   -7.1112 C.3       6 UNK        -0.1936 
     42 C          25.6031    2.4798   -8.7783 C.2       6 UNK         0.5081 
     43 O          25.6852    3.2611   -9.7263 O.2       6 UNK        -0.5248 
     44 N          25.6921    1.1475   -8.9024 N.am      7 UNK        -0.4718 
     45 CA         25.9804    0.4488  -10.1546 C.3       7 UNK         0.0273 
     46 CB         25.1814   -0.8645  -10.2076 C.3       7 UNK        -0.1935 
     47 C          27.4846    0.1789  -10.3084 C.2       7 UNK         0.5018 
     48 O          28.0226    0.3931  -11.3952 O.2       7 UNK        -0.5186 
     49 N          28.1348   -0.2891   -9.2313 N.am      8 UNK        -0.4240 
     50 CA         29.5605   -0.6348   -9.2124 C.3       8 UNK         0.0235 
     51 CB         29.8812   -1.4491   -7.9494 C.3       8 UNK        -0.2000 
     52 C          30.4963    0.5811   -9.3135 C.2       8 UNK         0.4941 
     53 O          31.5782    0.4520   -9.8904 O.2       8 UNK        -0.5273 
     54 N          30.0784    1.7280   -8.7543 N.am      9 UNK        -0.4262 
     55 CA         30.8096    2.9965   -8.6916 C.3       9 UNK         0.0264 
     56 CB         30.8876    3.6468  -10.0925 C.3       9 UNK        -0.1955 
     57 C          32.1690    2.8193   -7.9894 C.2       9 UNK         0.5031 
     58 O          32.1936    2.5370   -6.7903 O.2       9 UNK        -0.5390 
     59 N          33.2665    2.9621   -8.7428 N.am      10 UNK        -0.4204 
     60 CA         34.6373    2.7444   -8.2776 C.3       10 UNK         0.0237 
     61 CB         35.6070    3.4308   -9.2550 C.3       10 UNK        -0.1985 
     62 C          35.0108    1.2586   -8.1026 C.2       10 UNK         0.4970 
     63 O          36.0420    0.9851   -7.4871 O.2       10 UNK        -0.4914 
     64 N          34.2035    0.3349   -8.6485 N.am      11 UNK        -0.4285 
     65 CA         34.4393   -1.1193   -8.6466 C.3       11 UNK         0.1007 
     66 C          35.6548   -1.5668   -9.5211 C.2       11 UNK         0.5703 
     67 N          36.0775   -0.7779  -10.5030 N.am      11 UNK        -0.7361 
     68 O          36.2154   -2.6437   -9.3328 O.2       11 UNK        -0.4986 
     69 C69        34.4344   -1.7107   -7.2056 C.3       12 UNK        -0.0947 
     70 S70        33.8691   -3.4434   -7.1412 S.3       12 UNK        -0.2240 
     71 C71        33.5104   -3.6354   -5.3682 C.3       12 UNK         0.0194 
     72 H72        23.1106   -5.8629   -3.3315 H         1 UNK         0.0906 
     73 H73        22.4325   -5.3647   -1.7795 H         1 UNK         0.0906 
     74 H74        23.6036   -6.6843   -1.8491 H         1 UNK         0.0906 
     75 H75        25.5885   -6.0411   -1.1393 H         1 UNK         0.3140 
     76 H76        27.4701   -5.0496   -0.7153 H         1 UNK         0.1085 
     77 H77        26.9607   -3.2051   -3.0990 H         1 UNK         0.0836 
     78 H78        28.4859   -3.4136   -2.2690 H         1 UNK         0.0836 
     79 H79        28.7360   -5.1524   -5.9398 H         1 UNK         0.0731 
     80 H80        27.6838   -3.8252   -5.5447 H         1 UNK         0.0731 
     81 H81        31.1549   -4.9585   -5.6450 H         1 UNK         0.1312 
     82 H82        32.7838   -1.2303   -4.2897 H         1 UNK         0.1406 
     83 H83        28.5465   -1.8874   -4.2297 H         1 UNK         0.1631 
     84 H84        30.6465    0.7429   -4.2984 H         1 UNK         0.0717 
     85 H85        31.2843    0.1267   -2.7969 H         1 UNK         0.0717 
     86 H86        27.2612    1.9259   -3.2566 H         1 UNK         0.0934 
     87 H87        28.8056    2.2621   -3.9896 H         1 UNK         0.0934 
     88 H88        28.4361    0.2792   -5.5498 H         1 UNK         0.0739 
     89 H89        26.0525   -0.1353   -4.0083 H         1 UNK         0.3093 
     90 H90        24.0275   -1.3946   -6.3985 H         1 UNK         0.0818 
     91 H91        25.3562   -3.4970   -6.6511 H         1 UNK         0.0819 
     92 H92        25.4987   -3.6158   -4.9024 H         1 UNK         0.0819 
     93 H93        23.9215   -3.7296   -5.6674 H         1 UNK         0.0819 
     94 H94        24.0200   -2.1009   -3.6336 H         1 UNK         0.3041 
     95 H95        22.7253    1.0495   -2.4751 H         1 UNK         0.0784 
     96 H96        20.8058   -0.1926   -3.4862 H         1 UNK         0.0793 
     97 H97        21.4452   -1.7115   -2.8721 H         1 UNK         0.0793 
     98 H98        20.8961   -0.4626   -1.7540 H         1 UNK         0.0793 
     99 H99        23.2599   -1.4925   -1.2222 H         1 UNK         0.3024 
    100 H100       26.4430   -0.4921    0.1290 H         1 UNK         0.1171 
    101 H101       23.7212   -1.4921    1.1643 H         1 UNK         0.0786 
    102 H102       25.2467   -1.5311    2.0434 H         1 UNK         0.0786 
    103 H103       24.4999    0.0091    1.6511 H         1 UNK         0.0786 
    104 H104       25.0637   -2.5763   -1.3546 H         1 UNK         0.2977 
    105 H105       25.2174    1.7104   -5.7221 H         1 UNK         0.3127 
    106 H106       25.9189    4.0000   -7.3047 H         1 UNK         0.0770 
    107 H107       23.4880    3.9909   -7.8625 H         1 UNK         0.0814 
    108 H108       23.3099    2.3927   -7.1510 H         1 UNK         0.0814 
    109 H109       23.7296    3.7720   -6.1365 H         1 UNK         0.0814 
    110 H110       25.6632    0.5753   -8.0680 H         1 UNK         0.2983 
    111 H111       25.6646    1.0635  -11.0009 H         1 UNK         0.0947 
    112 H112       25.4475   -1.5405   -9.3944 H         1 UNK         0.0806 
    113 H113       25.3660   -1.3937  -11.1434 H         1 UNK         0.0806 
    114 H114       24.1092   -0.6770  -10.1484 H         1 UNK         0.0806 
    115 H115       27.5992   -0.4938   -8.3898 H         1 UNK         0.3000 
    116 H116       29.7575   -1.2692  -10.0793 H         1 UNK         0.0850 
    117 H117       30.9163   -1.7946   -7.9571 H         1 UNK         0.0810 
    118 H118       29.2457   -2.3311   -7.8676 H         1 UNK         0.0810 
    119 H119       29.7493   -0.8566   -7.0455 H         1 UNK         0.0810 
    120 H120       29.2053    1.7271   -8.2344 H         1 UNK         0.3040 
    121 H121       30.2238    3.6604   -8.0541 H         1 UNK         0.0766 
    122 H122       31.3925    4.6131  -10.0529 H         1 UNK         0.0812 
    123 H123       29.8881    3.8286  -10.4880 H         1 UNK         0.0812 
    124 H124       31.4123    3.0221  -10.8162 H         1 UNK         0.0812 
    125 H125       33.1449    3.1730   -9.7230 H         1 UNK         0.3205 
    126 H126       34.7465    3.2200   -7.3005 H         1 UNK         0.0754 
    127 H127       36.6404    3.3229   -8.9222 H         1 UNK         0.0769 
    128 H128       35.4046    4.4995   -9.3300 H         1 UNK         0.0769 
    129 H129       35.5417    3.0046  -10.2569 H         1 UNK         0.0769 
    130 H130       33.3608    0.6290   -9.1345 H         1 UNK         0.2981 
    131 H131       33.5689   -1.5245   -9.1637 H         1 UNK         0.0541 
    132 H132       36.8575   -1.0715  -11.0696 H         1 UNK         0.3459 
    133 H133       35.6223    0.1016  -10.6850 H         1 UNK         0.3459 
    134 H134       33.7605   -1.1284   -6.5763 H         1 UNK         0.0612 
    135 H135       35.4204   -1.6351   -6.7440 H         1 UNK         0.0612 
    136 H136       34.2675   -3.1165   -4.7782 H         1 UNK         0.0624 
    137 H137       33.5929   -4.6916   -5.1076 H         1 UNK         0.0624 
@<TRIPOS>BOND
     1    1    2 1    
     2    1   72 1    
     3    1   73 1    
     4    1   74 1    
     5    2    3 2    
     6    2    4 am   BACKBONE|DICT|INTERRES
     7    4    5 1    
     8    4   75 1    
     9    5    6 1    
    10    5   35 1    
    11    5   76 1    
    12    6    7 1    
    13    6   77 1    
    14    6   78 1    
    15    7    8 1    
    16    8    9 1    
    17    8   79 1    
    18    8   80 1    
    19    9   10 ar   
    20    9   14 ar   
    21   10   11 ar   
    22   10   81 1    
    23   11   12 ar   
    24   11   71 1    
    25   12   13 ar   
    26   12   82 1    
    27   13   14 ar   
    28   13   15 1    
    29   14   83 1    
    30   15   16 1    
    31   15   84 1    
    32   15   85 1    
    33   16   17 1    
    34   17   18 1    
    35   17   86 1    
    36   17   87 1    
    37   18   19 1    
    38   18   37 1    
    39   18   88 1    
    40   19   20 am   BACKBONE|DICT|INTERRES
    41   19   89 1    
    42   20   21 2    
    43   20   22 1    
    44   22   23 1    
    45   22   24 1    
    46   22   90 1    
    47   23   91 1    
    48   23   92 1    
    49   23   93 1    
    50   24   25 am   BACKBONE|DICT|INTERRES
    51   24   94 1    
    52   25   26 2    
    53   25   27 1    
    54   27   28 1    
    55   27   29 1    
    56   27   95 1    
    57   28   96 1    
    58   28   97 1    
    59   28   98 1    
    60   29   30 am   BACKBONE|DICT|INTERRES
    61   29   99 1    
    62   30   31 2    
    63   30   32 1    
    64   32   33 1    
    65   32   34 1    
    66   32  100 1    
    67   33  101 1    
    68   33  102 1    
    69   33  103 1    
    70   34   35 am   BACKBONE|DICT|INTERRES
    71   34  104 1    
    72   35   36 2    
    73   37   38 2    
    74   37   39 am   BACKBONE|DICT|INTERRES
    75   39   40 1    
    76   39  105 1    
    77   40   41 1    
    78   40   42 1    
    79   40  106 1    
    80   41  107 1    
    81   41  108 1    
    82   41  109 1    
    83   42   43 2    
    84   42   44 am   BACKBONE|DICT|INTERRES
    85   44   45 1    
    86   44  110 1    
    87   45   46 1    
    88   45   47 1    
    89   45  111 1    
    90   46  112 1    
    91   46  113 1    
    92   46  114 1    
    93   47   48 2    
    94   47   49 am   BACKBONE|DICT|INTERRES
    95   49   50 1    
    96   49  115 1    
    97   50   51 1    
    98   50   52 1    
    99   50  116 1    
   100   51  117 1    
   101   51  118 1    
   102   51  119 1    
   103   52   53 2    
   104   52   54 am   BACKBONE|DICT|INTERRES
   105   54   55 1    
   106   54  120 1    
   107   55   56 1    
   108   55   57 1    
   109   55  121 1    
   110   56  122 1    
   111   56  123 1    
   112   56  124 1    
   113   57   58 2    
   114   57   59 am   BACKBONE|DICT|INTERRES
   115   59   60 1    
   116   59  125 1    
   117   60   61 1    
   118   60   62 1    
   119   60  126 1    
   120   61  127 1    
   121   61  128 1    
   122   61  129 1    
   123   62   63 2    
   124   62   64 am   BACKBONE|DICT|INTERRES
   125   64   65 1    
   126   64  130 1    
   127   65   66 1    
   128   65   69 1    
   129   65  131 1    
   130   66   67 am   BACKBONE|DICT|INTERRES
   131   66   68 2    
   132   67  132 1    
   133   67  133 1    
   134   69   70 1    
   135   69  134 1    
   136   69  135 1    
   137   70   71 1    
   138   71  136 1    
   139   71  137 1    
@<TRIPOS>SUBSTRUCTURE
     1 UNK         1 GROUP             0       ****    0 ROOT    
