@<TRIPOS>MOLECULE
3R137
137   139    1
SMALL
USER_CHARGES


@<TRIPOS>ATOM
      1 CA         24.4553   -2.9507    0.6875 C.3       0 UNK        -0.2020 
      2 C          25.4845   -3.9473    0.1737 C.2       0 UNK         0.4855 
      3 O          25.3718   -5.1373    0.4698 O.2       0 UNK        -0.5197 
      4 N          26.4774   -3.4548   -0.5812 N.am      1 UNK        -0.4892 
      5 CA         27.5757   -4.1900   -1.2312 C.3       1 UNK         0.0835 
      6 C6         28.4200   -5.0745   -0.2681 C.3       12 UNK        -0.0855 
      7 S7         29.1090   -4.1496    1.1454 S.3       12 UNK        -0.2931 
      8 C8         30.7943   -3.7913    0.5575 C.3       12 UNK         0.0378 
      9 C9         30.7985   -2.7668   -0.5683 C.ar      12 UNK        -0.0802 
     10 C10        31.1723   -3.1334   -1.8667 C.ar      12 UNK        -0.0944 
     11 C11        31.2179   -2.1780   -2.8886 C.ar      12 UNK        -0.0787 
     12 C12        30.8932   -0.8503   -2.5972 C.ar      12 UNK        -0.0862 
     13 C13        30.4734   -0.4832   -1.3180 C.ar      12 UNK        -0.0733 
     14 C14        30.4387   -1.4418   -0.3031 C.ar      12 UNK        -0.0832 
     15 C15        30.0424    0.9472   -1.0476 C.3       12 UNK         0.0240 
     16 S16        28.2878    1.1661   -1.4856 S.3       12 UNK        -0.2522 
     17 C17        28.3346    2.6747   -2.5101 C.3       12 UNK        -0.0967 
     18 CA         28.2757    2.3759   -4.0311 C.3       5 UNK         0.0660 
     19 N          27.0586    1.6400   -4.3952 N.am      5 UNK        -0.4015 
     20 C          26.6375    1.3052   -5.6237 C.2       4 UNK         0.4946 
     21 O          27.2064    1.6165   -6.6748 O.2       4 UNK        -0.5353 
     22 CA         25.3334    0.4878   -5.6869 C.3       4 UNK         0.0277 
     23 CB         24.2560    1.2209   -6.5019 C.3       4 UNK        -0.1981 
     24 N          25.5407   -0.8460   -6.2556 N.am      4 UNK        -0.4209 
     25 C          26.2478   -1.8202   -5.6696 C.2       3 UNK         0.4942 
     26 O          26.8120   -1.6940   -4.5783 O.2       3 UNK        -0.5208 
     27 CA         26.3050   -3.1692   -6.4060 C.3       3 UNK         0.0250 
     28 CB         26.9400   -3.0655   -7.8054 C.3       3 UNK        -0.1990 
     29 N          27.0701   -4.0921   -5.5804 N.am      3 UNK        -0.4232 
     30 C          27.0138   -5.4265   -5.6045 C.2       2 UNK         0.4993 
     31 O          26.3451   -6.0740   -6.4113 O.2       2 UNK        -0.5286 
     32 CA         27.8317   -6.1694   -4.5321 C.3       2 UNK         0.0209 
     33 CB         29.1841   -6.6247   -5.1051 C.3       2 UNK        -0.1931 
     34 N          28.0640   -5.3817   -3.3141 N.am      2 UNK        -0.4546 
     35 C          27.1035   -5.0042   -2.4563 C.2       1 UNK         0.5154 
     36 O          25.9124   -5.2827   -2.6169 O.2       1 UNK        -0.5181 
     37 C          28.4237    3.6869   -4.8265 C.2       5 UNK         0.5014 
     38 O          27.6157    4.5996   -4.6419 O.2       5 UNK        -0.5248 
     39 N          29.4448    3.7409   -5.6932 N.am      6 UNK        -0.4434 
     40 CA         29.8211    4.8507   -6.5780 C.3       6 UNK         0.0363 
     41 CB         30.2880    6.0673   -5.7508 C.3       6 UNK        -0.1936 
     42 C          28.7612    5.2390   -7.6317 C.2       6 UNK         0.5081 
     43 O          28.9108    6.2851   -8.2656 O.2       6 UNK        -0.5248 
     44 N          27.7269    4.4092   -7.8186 N.am      7 UNK        -0.4718 
     45 CA         26.6352    4.6361   -8.7666 C.3       7 UNK         0.0273 
     46 CB         25.3009    4.6817   -8.0070 C.3       7 UNK        -0.1935 
     47 C          26.6148    3.5557   -9.8533 C.2       7 UNK         0.5018 
     48 O          26.4179    3.8884  -11.0230 O.2       7 UNK        -0.5186 
     49 N          26.8387    2.2939   -9.4656 N.am      8 UNK        -0.4240 
     50 CA         27.0123    1.1731  -10.3847 C.3       8 UNK         0.0235 
     51 CB         26.4193   -0.0873   -9.7444 C.3       8 UNK        -0.2000 
     52 C          28.5090    0.9787  -10.6432 C.2       8 UNK         0.4941 
     53 O          29.2922    1.0319   -9.6943 O.2       8 UNK        -0.5273 
     54 N          28.8806    0.7091  -11.9022 N.am      9 UNK        -0.4262 
     55 CA         30.2709    0.5730  -12.3622 C.3       9 UNK         0.0264 
     56 CB         30.2825    0.3357  -13.8812 C.3       9 UNK        -0.1955 
     57 C          31.0921   -0.5148  -11.6435 C.2       9 UNK         0.5031 
     58 O          32.3096   -0.3708  -11.5262 O.2       9 UNK        -0.5390 
     59 N          30.4156   -1.5624  -11.1539 N.am      10 UNK        -0.4204 
     60 CA         31.0029   -2.6432  -10.3591 C.3       10 UNK         0.0237 
     61 CB         30.0008   -3.8072  -10.2815 C.3       10 UNK        -0.1985 
     62 C          31.4437   -2.2188   -8.9438 C.2       10 UNK         0.4970 
     63 O          32.2748   -2.9140   -8.3583 O.2       10 UNK        -0.4914 
     64 N          30.8941   -1.1137   -8.4222 N.am      11 UNK        -0.4285 
     65 CA         31.1539   -0.5870   -7.0742 C.3       11 UNK         0.1007 
     66 C          31.4416    0.9413   -7.0768 C.2       11 UNK         0.5703 
     67 N          31.9293    1.5149   -8.1699 N.am      11 UNK        -0.7361 
     68 O          31.2537    1.6196   -6.0689 O.2       11 UNK        -0.4986 
     69 C69        30.0471   -1.0176   -6.0660 C.3       12 UNK        -0.0947 
     70 S70        30.2613   -2.7282   -5.4610 S.3       12 UNK        -0.2240 
     71 C71        31.6573   -2.5701   -4.2933 C.3       12 UNK         0.0194 
     72 H72        23.4634   -3.2138    0.3209 H         1 UNK         0.0906 
     73 H73        24.4309   -2.9653    1.7769 H         1 UNK         0.0906 
     74 H74        24.6753   -1.9321    0.3680 H         1 UNK         0.0906 
     75 H75        26.4737   -2.4646   -0.7828 H         1 UNK         0.3140 
     76 H76        28.2295   -3.4119   -1.6287 H         1 UNK         0.1085 
     77 H77        29.2443   -5.5512   -0.8013 H         1 UNK         0.0836 
     78 H78        27.8209   -5.8962    0.1268 H         1 UNK         0.0836 
     79 H79        31.3809   -3.4031    1.3915 H         1 UNK         0.0731 
     80 H80        31.2815   -4.7181    0.2504 H         1 UNK         0.0731 
     81 H81        31.4462   -4.1580   -2.0778 H         1 UNK         0.1312 
     82 H82        30.9577   -0.0929   -3.3630 H         1 UNK         0.1406 
     83 H83        30.1246   -1.1612    0.6935 H         1 UNK         0.1631 
     84 H84        30.6765    1.6289   -1.6159 H         1 UNK         0.0717 
     85 H85        30.1844    1.2009    0.0040 H         1 UNK         0.0717 
     86 H86        27.4883    3.2987   -2.2149 H         1 UNK         0.0934 
     87 H87        29.2245    3.2562   -2.2611 H         1 UNK         0.0934 
     88 H88        29.1174    1.7267   -4.2782 H         1 UNK         0.0739 
     89 H89        26.5197    1.3122   -3.6073 H         1 UNK         0.3093 
     90 H90        24.9490    0.3566   -4.6729 H         1 UNK         0.0818 
     91 H91        23.3217    0.6597   -6.5213 H         1 UNK         0.0819 
     92 H92        24.0339    2.1940   -6.0626 H         1 UNK         0.0819 
     93 H93        24.5684    1.3862   -7.5337 H         1 UNK         0.0819 
     94 H94        25.1154   -1.0237   -7.1530 H         1 UNK         0.3041 
     95 H95        25.2847   -3.5479   -6.4948 H         1 UNK         0.0784 
     96 H96        27.1299   -4.0501   -8.2327 H         1 UNK         0.0793 
     97 H97        26.2711   -2.5549   -8.4954 H         1 UNK         0.0793 
     98 H98        27.8871   -2.5265   -7.7852 H         1 UNK         0.0793 
     99 H99        27.6110   -3.6309   -4.8582 H         1 UNK         0.3024 
    100 H100       27.2601   -7.0575   -4.2526 H         1 UNK         0.1171 
    101 H101       29.8095   -5.7776   -5.3893 H         1 UNK         0.0786 
    102 H102       29.0429   -7.2371   -5.9969 H         1 UNK         0.0786 
    103 H103       29.7390   -7.2270   -4.3856 H         1 UNK         0.0786 
    104 H104       29.0193   -5.1088   -3.1337 H         1 UNK         0.2977 
    105 H105       30.0407    2.9172   -5.7814 H         1 UNK         0.3127 
    106 H106       30.6803    4.4921   -7.1464 H         1 UNK         0.0770 
    107 H107       29.4640    6.5219   -5.2001 H         1 UNK         0.0814 
    108 H108       30.7135    6.8397   -6.3925 H         1 UNK         0.0814 
    109 H109       31.0585    5.7870   -5.0326 H         1 UNK         0.0814 
    110 H110       27.6916    3.5525   -7.2759 H         1 UNK         0.2983 
    111 H111       26.7593    5.5949   -9.2749 H         1 UNK         0.0947 
    112 H112       24.4601    4.7960   -8.6925 H         1 UNK         0.0806 
    113 H113       25.2729    5.5225   -7.3137 H         1 UNK         0.0806 
    114 H114       25.1370    3.7733   -7.4308 H         1 UNK         0.0806 
    115 H115       27.0428    2.0965   -8.4884 H         1 UNK         0.3000 
    116 H116       26.4954    1.3656  -11.3275 H         1 UNK         0.0850 
    117 H117       26.9049   -0.3043   -8.7924 H         1 UNK         0.0810 
    118 H118       25.3510    0.0268   -9.5612 H         1 UNK         0.0810 
    119 H119       26.5489   -0.9554  -10.3918 H         1 UNK         0.0810 
    120 H120       28.1674    0.6626  -12.6164 H         1 UNK         0.3040 
    121 H121       30.7669    1.5256  -12.1638 H         1 UNK         0.0766 
    122 H122       29.8083    1.1586  -14.4165 H         1 UNK         0.0812 
    123 H123       29.7641   -0.5854  -14.1505 H         1 UNK         0.0812 
    124 H124       31.3040    0.2559  -14.2564 H         1 UNK         0.0812 
    125 H125       29.4180   -1.5940  -11.3037 H         1 UNK         0.3205 
    126 H126       31.8949   -2.9972  -10.8805 H         1 UNK         0.0754 
    127 H127       30.4063   -4.6359   -9.6989 H         1 UNK         0.0769 
    128 H128       29.7657   -4.1955  -11.2727 H         1 UNK         0.0769 
    129 H129       29.0667   -3.5040   -9.8089 H         1 UNK         0.0769 
    130 H130       30.2663   -0.5445   -8.9830 H         1 UNK         0.2981 
    131 H131       32.1032   -0.9937   -6.7268 H         1 UNK         0.0541 
    132 H132       32.1288    2.5011   -8.1645 H         1 UNK         0.3459 
    133 H133       32.0743    0.9759   -9.0090 H         1 UNK         0.3459 
    134 H134       29.0663   -0.9316   -6.5341 H         1 UNK         0.0612 
    135 H135       29.9882   -0.3628   -5.2027 H         1 UNK         0.0612 
    136 H136       32.3849   -1.8477   -4.6622 H         1 UNK         0.0624 
    137 H137       32.1800   -3.5272   -4.2644 H         1 UNK         0.0624 
@<TRIPOS>BOND
     1    1    2 1    
     2    1   72 1    
     3    1   73 1    
     4    1   74 1    
     5    2    3 2    
     6    2    4 am   BACKBONE|DICT|INTERRES
     7    4    5 1    
     8    4   75 1    
     9    5    6 1    
    10    5   35 1    
    11    5   76 1    
    12    6    7 1    
    13    6   77 1    
    14    6   78 1    
    15    7    8 1    
    16    8    9 1    
    17    8   79 1    
    18    8   80 1    
    19    9   10 ar   
    20    9   14 ar   
    21   10   11 ar   
    22   10   81 1    
    23   11   12 ar   
    24   11   71 1    
    25   12   13 ar   
    26   12   82 1    
    27   13   14 ar   
    28   13   15 1    
    29   14   83 1    
    30   15   16 1    
    31   15   84 1    
    32   15   85 1    
    33   16   17 1    
    34   17   18 1    
    35   17   86 1    
    36   17   87 1    
    37   18   19 1    
    38   18   37 1    
    39   18   88 1    
    40   19   20 am   BACKBONE|DICT|INTERRES
    41   19   89 1    
    42   20   21 2    
    43   20   22 1    
    44   22   23 1    
    45   22   24 1    
    46   22   90 1    
    47   23   91 1    
    48   23   92 1    
    49   23   93 1    
    50   24   25 am   BACKBONE|DICT|INTERRES
    51   24   94 1    
    52   25   26 2    
    53   25   27 1    
    54   27   28 1    
    55   27   29 1    
    56   27   95 1    
    57   28   96 1    
    58   28   97 1    
    59   28   98 1    
    60   29   30 am   BACKBONE|DICT|INTERRES
    61   29   99 1    
    62   30   31 2    
    63   30   32 1    
    64   32   33 1    
    65   32   34 1    
    66   32  100 1    
    67   33  101 1    
    68   33  102 1    
    69   33  103 1    
    70   34   35 am   BACKBONE|DICT|INTERRES
    71   34  104 1    
    72   35   36 2    
    73   37   38 2    
    74   37   39 am   BACKBONE|DICT|INTERRES
    75   39   40 1    
    76   39  105 1    
    77   40   41 1    
    78   40   42 1    
    79   40  106 1    
    80   41  107 1    
    81   41  108 1    
    82   41  109 1    
    83   42   43 2    
    84   42   44 am   BACKBONE|DICT|INTERRES
    85   44   45 1    
    86   44  110 1    
    87   45   46 1    
    88   45   47 1    
    89   45  111 1    
    90   46  112 1    
    91   46  113 1    
    92   46  114 1    
    93   47   48 2    
    94   47   49 am   BACKBONE|DICT|INTERRES
    95   49   50 1    
    96   49  115 1    
    97   50   51 1    
    98   50   52 1    
    99   50  116 1    
   100   51  117 1    
   101   51  118 1    
   102   51  119 1    
   103   52   53 2    
   104   52   54 am   BACKBONE|DICT|INTERRES
   105   54   55 1    
   106   54  120 1    
   107   55   56 1    
   108   55   57 1    
   109   55  121 1    
   110   56  122 1    
   111   56  123 1    
   112   56  124 1    
   113   57   58 2    
   114   57   59 am   BACKBONE|DICT|INTERRES
   115   59   60 1    
   116   59  125 1    
   117   60   61 1    
   118   60   62 1    
   119   60  126 1    
   120   61  127 1    
   121   61  128 1    
   122   61  129 1    
   123   62   63 2    
   124   62   64 am   BACKBONE|DICT|INTERRES
   125   64   65 1    
   126   64  130 1    
   127   65   66 1    
   128   65   69 1    
   129   65  131 1    
   130   66   67 am   BACKBONE|DICT|INTERRES
   131   66   68 2    
   132   67  132 1    
   133   67  133 1    
   134   69   70 1    
   135   69  134 1    
   136   69  135 1    
   137   70   71 1    
   138   71  136 1    
   139   71  137 1    
@<TRIPOS>SUBSTRUCTURE
     1 UNK         1 GROUP             0       ****    0 ROOT    
