@<TRIPOS>MOLECULE
3R137
137   139    1
SMALL
USER_CHARGES


@<TRIPOS>ATOM
      1 CA         28.3079   -3.4462    3.6201 C.3       0 UNK        -0.2020 
      2 C          27.7787   -3.7195    2.2199 C.2       0 UNK         0.4855 
      3 O          26.7200   -4.3331    2.0802 O.2       0 UNK        -0.5197 
      4 N          28.5114   -3.2681    1.1921 N.am      1 UNK        -0.4892 
      5 CA         28.1841   -3.3895   -0.2369 C.3       1 UNK         0.0835 
      6 C6         28.1415   -4.8635   -0.7452 C.3       12 UNK        -0.0855 
      7 S7         29.6230   -5.8796   -0.3970 S.3       12 UNK        -0.2931 
      8 C8         31.0327   -4.7822   -0.7915 C.3       12 UNK         0.0378 
      9 C9         31.0359   -4.1865   -2.2010 C.ar      12 UNK        -0.0802 
     10 C10        31.6909   -2.9685   -2.4122 C.ar      12 UNK        -0.0944 
     11 C11        31.7487   -2.4028   -3.6878 C.ar      12 UNK        -0.0787 
     12 C12        31.1411   -3.0599   -4.7592 C.ar      12 UNK        -0.0862 
     13 C13        30.4462   -4.2578   -4.5648 C.ar      12 UNK        -0.0733 
     14 C14        30.4262   -4.8281   -3.2882 C.ar      12 UNK        -0.0832 
     15 C15        29.7198   -4.9650   -5.7095 C.3       12 UNK         0.0240 
     16 S16        29.1011   -3.8643   -7.0317 S.3       12 UNK        -0.2522 
     17 C17        27.9566   -2.7713   -6.1246 C.3       12 UNK        -0.0967 
     18 CA         27.3046   -1.7168   -7.0575 C.3       5 UNK         0.0660 
     19 N          25.9304   -1.4133   -6.6462 N.am      5 UNK        -0.4015 
     20 C          25.0052   -0.8754   -7.4556 C.2       4 UNK         0.4946 
     21 O          25.2145   -0.5948   -8.6345 O.2       4 UNK        -0.5353 
     22 CA         23.6223   -0.5657   -6.8523 C.3       4 UNK         0.0277 
     23 CB         22.6933   -1.7821   -6.9910 C.3       4 UNK        -0.1981 
     24 N          23.6767   -0.1524   -5.4491 N.am      4 UNK        -0.4209 
     25 C          24.3321    0.9241   -4.9920 C.2       3 UNK         0.4942 
     26 O          24.8924    1.7393   -5.7217 O.2       3 UNK        -0.5208 
     27 CA         24.4364    1.0925   -3.4665 C.3       3 UNK         0.0250 
     28 CB         23.3689    2.0763   -2.9627 C.3       3 UNK        -0.1990 
     29 N          24.3404   -0.1630   -2.7110 N.am      3 UNK        -0.4232 
     30 C          25.1606   -1.2150   -2.8460 C.2       2 UNK         0.4993 
     31 O          26.0731   -1.2794   -3.6758 O.2       2 UNK        -0.5286 
     32 CA         24.8523   -2.4312   -1.9610 C.3       2 UNK         0.0209 
     33 CB         24.0044   -3.4503   -2.7406 C.3       2 UNK        -0.1931 
     34 N          26.0752   -3.0847   -1.4964 N.am      2 UNK        -0.4546 
     35 C          26.9165   -2.5716   -0.5872 C.2       1 UNK         0.5154 
     36 O          26.7261   -1.4853   -0.0323 O.2       1 UNK        -0.5181 
     37 C          28.1477   -0.4273   -7.1881 C.2       5 UNK         0.5014 
     38 O          28.9662   -0.3129   -8.1048 O.2       5 UNK        -0.5248 
     39 N          27.8907    0.5509   -6.3059 N.am      6 UNK        -0.4434 
     40 CA         28.4604    1.8969   -6.3837 C.3       6 UNK         0.0363 
     41 CB         28.2299    2.6468   -5.0626 C.3       6 UNK        -0.1936 
     42 C          27.9041    2.6858   -7.5806 C.2       6 UNK         0.5081 
     43 O          28.6806    3.3201   -8.2924 O.2       6 UNK        -0.5248 
     44 N          26.5877    2.5920   -7.8221 N.am      7 UNK        -0.4718 
     45 CA         25.9013    3.1806   -8.9793 C.3       7 UNK         0.0273 
     46 CB         24.3822    3.0200   -8.8178 C.3       7 UNK        -0.1935 
     47 C          26.3683    2.5958  -10.3248 C.2       7 UNK         0.5018 
     48 O          26.4558    3.3340  -11.3061 O.2       7 UNK        -0.5186 
     49 N          26.7103    1.2992  -10.3347 N.am      8 UNK        -0.4240 
     50 CA         27.3569    0.6015  -11.4510 C.3       8 UNK         0.0235 
     51 CB         27.2033   -0.9161  -11.2513 C.3       8 UNK        -0.2000 
     52 C          28.8420    0.9744  -11.6468 C.2       8 UNK         0.4941 
     53 O          29.4442    0.5069  -12.6142 O.2       8 UNK        -0.5273 
     54 N          29.4056    1.7929  -10.7440 N.am      9 UNK        -0.4262 
     55 CA         30.7795    2.3021  -10.7260 C.3       9 UNK         0.0264 
     56 CB         31.0682    3.1783  -11.9646 C.3       9 UNK        -0.1955 
     57 C          31.8401    1.2115  -10.4934 C.2       9 UNK         0.5031 
     58 O          32.9677    1.3524  -10.9723 O.2       9 UNK        -0.5390 
     59 N          31.4860    0.1567   -9.7425 N.am      10 UNK        -0.4204 
     60 CA         32.4389   -0.8647   -9.2988 C.3       10 UNK         0.0237 
     61 CB         31.6832   -2.1309   -8.8752 C.3       10 UNK        -0.1985 
     62 C          33.3241   -0.3538   -8.1496 C.2       10 UNK         0.4970 
     63 O          34.5011   -0.7111   -8.0880 O.2       10 UNK        -0.4914 
     64 N          32.7430    0.4709   -7.2696 N.am      11 UNK        -0.4285 
     65 CA         33.4354    1.1380   -6.1606 C.3       11 UNK         0.1007 
     66 C          34.2496    2.3670   -6.6447 C.2       11 UNK         0.5703 
     67 N          35.3631    2.6709   -5.9916 N.am      11 UNK        -0.7361 
     68 O          33.8619    3.0692   -7.5770 O.2       11 UNK        -0.4986 
     69 C69        32.4586    1.5340   -5.0182 C.3       12 UNK        -0.0947 
     70 S70        31.3243    0.2051   -4.4863 S.3       12 UNK        -0.2240 
     71 C71        32.4762   -1.0906   -3.9286 C.3       12 UNK         0.0194 
     72 H72        28.4613   -4.3847    4.1523 H         1 UNK         0.0906 
     73 H73        27.5904   -2.8490    4.1822 H         1 UNK         0.0906 
     74 H74        29.2559   -2.9089    3.6021 H         1 UNK         0.0906 
     75 H75        29.3471   -2.7369    1.3920 H         1 UNK         0.3140 
     76 H76        28.9825   -2.8758   -0.7726 H         1 UNK         0.1085 
     77 H77        27.9959   -4.8874   -1.8258 H         1 UNK         0.0836 
     78 H78        27.2847   -5.3873   -0.3176 H         1 UNK         0.0836 
     79 H79        31.0696   -3.9866   -0.0464 H         1 UNK         0.0731 
     80 H80        31.9525   -5.3543   -0.6642 H         1 UNK         0.0731 
     81 H81        32.1687   -2.4645   -1.5829 H         1 UNK         0.1312 
     82 H82        31.1949   -2.6143   -5.7419 H         1 UNK         0.1406 
     83 H83        29.9245   -5.7749   -3.1440 H         1 UNK         0.1631 
     84 H84        28.8736   -5.5333   -5.3200 H         1 UNK         0.0717 
     85 H85        30.4015   -5.6904   -6.1549 H         1 UNK         0.0717 
     86 H86        27.1924   -3.4155   -5.6862 H         1 UNK         0.0934 
     87 H87        28.4623   -2.3009   -5.2788 H         1 UNK         0.0934 
     88 H88        27.2363   -2.1481   -8.0588 H         1 UNK         0.0739 
     89 H89        25.7166   -1.5494   -5.6635 H         1 UNK         0.3093 
     90 H90        23.1909    0.2594   -7.4217 H         1 UNK         0.0818 
     91 H91        22.6192   -2.0981   -8.0327 H         1 UNK         0.0819 
     92 H92        23.0542   -2.6363   -6.4165 H         1 UNK         0.0819 
     93 H93        21.6829   -1.5513   -6.6529 H         1 UNK         0.0819 
     94 H94        23.2330   -0.7596   -4.7763 H         1 UNK         0.3041 
     95 H95        25.4198    1.5200   -3.2597 H         1 UNK         0.0784 
     96 H96        23.4350    3.0283   -3.4920 H         1 UNK         0.0793 
     97 H97        22.3597    1.6902   -3.1121 H         1 UNK         0.0793 
     98 H98        23.4944    2.2904   -1.9011 H         1 UNK         0.0793 
     99 H99        23.6055   -0.2084   -2.0192 H         1 UNK         0.3024 
    100 H100       24.2900   -2.1021   -1.0838 H         1 UNK         0.1171 
    101 H101       23.0638   -3.0078   -3.0715 H         1 UNK         0.0786 
    102 H102       23.7527   -4.3125   -2.1226 H         1 UNK         0.0786 
    103 H103       24.5235   -3.8142   -3.6286 H         1 UNK         0.0786 
    104 H104       26.3075   -3.9630   -1.9346 H         1 UNK         0.2977 
    105 H105       27.1964    0.3884   -5.5903 H         1 UNK         0.3127 
    106 H106       29.5381    1.7966   -6.5275 H         1 UNK         0.0770 
    107 H107       28.6652    2.1078   -4.2209 H         1 UNK         0.0814 
    108 H108       28.6969    3.6320   -5.0915 H         1 UNK         0.0814 
    109 H109       27.1704    2.7963   -4.8553 H         1 UNK         0.0814 
    110 H110       26.0023    2.1129   -7.1399 H         1 UNK         0.2983 
    111 H111       26.1327    4.2479   -8.9887 H         1 UNK         0.0947 
    112 H112       24.0864    1.9713   -8.8263 H         1 UNK         0.0806 
    113 H113       23.8496    3.5149   -9.6310 H         1 UNK         0.0806 
    114 H114       24.0319    3.4605   -7.8840 H         1 UNK         0.0806 
    115 H115       26.5129    0.7435   -9.5086 H         1 UNK         0.3000 
    116 H116       26.8354    0.8775  -12.3698 H         1 UNK         0.0850 
    117 H117       27.6223   -1.4684  -12.0934 H         1 UNK         0.0810 
    118 H118       26.1546   -1.2019  -11.1690 H         1 UNK         0.0810 
    119 H119       27.7158   -1.2572  -10.3517 H         1 UNK         0.0810 
    120 H120       28.8314    2.1195   -9.9743 H         1 UNK         0.3040 
    121 H121       30.8417    2.9538   -9.8536 H         1 UNK         0.0766 
    122 H122       31.1088    2.5874  -12.8799 H         1 UNK         0.0812 
    123 H123       32.0268    3.6893  -11.8668 H         1 UNK         0.0812 
    124 H124       30.3055    3.9464  -12.0930 H         1 UNK         0.0812 
    125 H125       30.5390    0.0934   -9.3778 H         1 UNK         0.3205 
    126 H126       33.0897   -1.1253  -10.1364 H         1 UNK         0.0754 
    127 H127       32.3751   -2.9273   -8.5980 H         1 UNK         0.0769 
    128 H128       31.0529   -2.5098   -9.6799 H         1 UNK         0.0769 
    129 H129       31.0461   -1.9392   -8.0133 H         1 UNK         0.0769 
    130 H130       31.7746    0.7182   -7.4006 H         1 UNK         0.2981 
    131 H131       34.1589    0.4313   -5.7524 H         1 UNK         0.0541 
    132 H132       35.8961    3.4754   -6.2830 H         1 UNK         0.3459 
    133 H133       35.6851    2.1119   -5.2168 H         1 UNK         0.3459 
    134 H134       31.8381    2.3775   -5.3268 H         1 UNK         0.0612 
    135 H135       33.0170    1.8731   -4.1439 H         1 UNK         0.0612 
    136 H136       33.2406   -1.2699   -4.6834 H         1 UNK         0.0624 
    137 H137       32.9915   -0.7508   -3.0291 H         1 UNK         0.0624 
@<TRIPOS>BOND
     1    1    2 1    
     2    1   72 1    
     3    1   73 1    
     4    1   74 1    
     5    2    3 2    
     6    2    4 am   BACKBONE|DICT|INTERRES
     7    4    5 1    
     8    4   75 1    
     9    5    6 1    
    10    5   35 1    
    11    5   76 1    
    12    6    7 1    
    13    6   77 1    
    14    6   78 1    
    15    7    8 1    
    16    8    9 1    
    17    8   79 1    
    18    8   80 1    
    19    9   10 ar   
    20    9   14 ar   
    21   10   11 ar   
    22   10   81 1    
    23   11   12 ar   
    24   11   71 1    
    25   12   13 ar   
    26   12   82 1    
    27   13   14 ar   
    28   13   15 1    
    29   14   83 1    
    30   15   16 1    
    31   15   84 1    
    32   15   85 1    
    33   16   17 1    
    34   17   18 1    
    35   17   86 1    
    36   17   87 1    
    37   18   19 1    
    38   18   37 1    
    39   18   88 1    
    40   19   20 am   BACKBONE|DICT|INTERRES
    41   19   89 1    
    42   20   21 2    
    43   20   22 1    
    44   22   23 1    
    45   22   24 1    
    46   22   90 1    
    47   23   91 1    
    48   23   92 1    
    49   23   93 1    
    50   24   25 am   BACKBONE|DICT|INTERRES
    51   24   94 1    
    52   25   26 2    
    53   25   27 1    
    54   27   28 1    
    55   27   29 1    
    56   27   95 1    
    57   28   96 1    
    58   28   97 1    
    59   28   98 1    
    60   29   30 am   BACKBONE|DICT|INTERRES
    61   29   99 1    
    62   30   31 2    
    63   30   32 1    
    64   32   33 1    
    65   32   34 1    
    66   32  100 1    
    67   33  101 1    
    68   33  102 1    
    69   33  103 1    
    70   34   35 am   BACKBONE|DICT|INTERRES
    71   34  104 1    
    72   35   36 2    
    73   37   38 2    
    74   37   39 am   BACKBONE|DICT|INTERRES
    75   39   40 1    
    76   39  105 1    
    77   40   41 1    
    78   40   42 1    
    79   40  106 1    
    80   41  107 1    
    81   41  108 1    
    82   41  109 1    
    83   42   43 2    
    84   42   44 am   BACKBONE|DICT|INTERRES
    85   44   45 1    
    86   44  110 1    
    87   45   46 1    
    88   45   47 1    
    89   45  111 1    
    90   46  112 1    
    91   46  113 1    
    92   46  114 1    
    93   47   48 2    
    94   47   49 am   BACKBONE|DICT|INTERRES
    95   49   50 1    
    96   49  115 1    
    97   50   51 1    
    98   50   52 1    
    99   50  116 1    
   100   51  117 1    
   101   51  118 1    
   102   51  119 1    
   103   52   53 2    
   104   52   54 am   BACKBONE|DICT|INTERRES
   105   54   55 1    
   106   54  120 1    
   107   55   56 1    
   108   55   57 1    
   109   55  121 1    
   110   56  122 1    
   111   56  123 1    
   112   56  124 1    
   113   57   58 2    
   114   57   59 am   BACKBONE|DICT|INTERRES
   115   59   60 1    
   116   59  125 1    
   117   60   61 1    
   118   60   62 1    
   119   60  126 1    
   120   61  127 1    
   121   61  128 1    
   122   61  129 1    
   123   62   63 2    
   124   62   64 am   BACKBONE|DICT|INTERRES
   125   64   65 1    
   126   64  130 1    
   127   65   66 1    
   128   65   69 1    
   129   65  131 1    
   130   66   67 am   BACKBONE|DICT|INTERRES
   131   66   68 2    
   132   67  132 1    
   133   67  133 1    
   134   69   70 1    
   135   69  134 1    
   136   69  135 1    
   137   70   71 1    
   138   71  136 1    
   139   71  137 1    
@<TRIPOS>SUBSTRUCTURE
     1 UNK         1 GROUP             0       ****    0 ROOT    
