@<TRIPOS>MOLECULE
3R137
137   139    1
SMALL
USER_CHARGES


@<TRIPOS>ATOM
      1 CA         27.2610   -3.8510    1.8818 C.3       0 UNK        -0.2020 
      2 C          27.1839   -3.0035    0.6214 C.2       0 UNK         0.4855 
      3 O          26.9478   -3.5434   -0.4588 O.2       0 UNK        -0.5197 
      4 N          27.3784   -1.6841    0.7567 N.am      1 UNK        -0.4892 
      5 CA         27.3763   -0.6438   -0.2871 C.3       1 UNK         0.0835 
      6 C6         28.4459   -0.8424   -1.3924 C.3       12 UNK        -0.0855 
      7 S7         30.1588   -0.7609   -0.7589 S.3       12 UNK        -0.2931 
      8 C8         30.7015   -2.5027   -0.7784 C.3       12 UNK         0.0378 
      9 C9         30.7513   -3.0797   -2.1860 C.ar      12 UNK        -0.0802 
     10 C10        31.7911   -2.7415   -3.0582 C.ar      12 UNK        -0.0944 
     11 C11        31.8149   -3.2404   -4.3661 C.ar      12 UNK        -0.0787 
     12 C12        30.7925   -4.0970   -4.7902 C.ar      12 UNK        -0.0862 
     13 C13        29.7520   -4.4494   -3.9223 C.ar      12 UNK        -0.0733 
     14 C14        29.7480   -3.9499   -2.6187 C.ar      12 UNK        -0.0832 
     15 C15        28.6067   -5.3372   -4.3991 C.3       12 UNK         0.0240 
     16 S16        26.9965   -4.4716   -4.3662 S.3       12 UNK        -0.2522 
     17 C17        27.3367   -3.0331   -5.4304 C.3       12 UNK        -0.0967 
     18 CA         26.5693   -3.0876   -6.7744 C.3       5 UNK         0.0660 
     19 N          25.1518   -2.7697   -6.5964 N.am      5 UNK        -0.4015 
     20 C          24.1884   -3.0927   -7.4708 C.2       4 UNK         0.4946 
     21 O          24.3964   -3.7295   -8.5054 O.2       4 UNK        -0.5353 
     22 CA         22.7419   -2.6730   -7.1421 C.3       4 UNK         0.0277 
     23 CB         21.9287   -3.8886   -6.6658 C.3       4 UNK        -0.1981 
     24 N          22.6503   -1.6191   -6.1304 N.am      4 UNK        -0.4209 
     25 C          22.9126   -0.3222   -6.3445 C.2       3 UNK         0.4942 
     26 O          23.1823    0.1460   -7.4504 O.2       3 UNK        -0.5208 
     27 CA         22.8687    0.6156   -5.1210 C.3       3 UNK         0.0250 
     28 CB         21.5752    1.4469   -5.1276 C.3       3 UNK        -0.1990 
     29 N          22.9956   -0.0669   -3.8251 N.am      3 UNK        -0.4232 
     30 C          24.0873   -0.7278   -3.4164 C.2       2 UNK         0.4993 
     31 O          25.0930   -0.8717   -4.1131 O.2       2 UNK        -0.5286 
     32 CA         24.0091   -1.4029   -2.0370 C.3       2 UNK         0.0209 
     33 CB         23.4830   -2.8406   -2.1822 C.3       2 UNK        -0.1931 
     34 N          25.3114   -1.4469   -1.3704 N.am      2 UNK        -0.4546 
     35 C          25.9830   -0.3878   -0.9042 C.2       1 UNK         0.5154 
     36 O          25.5364    0.7606   -0.9270 O.2       1 UNK        -0.5181 
     37 C          27.2389   -2.1341   -7.7806 C.2       5 UNK         0.5014 
     38 O          26.7686   -1.0156   -8.0057 O.2       5 UNK        -0.5248 
     39 N          28.4180   -2.5583   -8.2625 N.am      6 UNK        -0.4434 
     40 CA         29.3750   -1.7488   -9.0275 C.3       6 UNK         0.0363 
     41 CB         30.5581   -2.6324   -9.4535 C.3       6 UNK        -0.1936 
     42 C          29.8872   -0.5036   -8.2770 C.2       6 UNK         0.5081 
     43 O          30.4303    0.3982   -8.9126 O.2       6 UNK        -0.5248 
     44 N          29.6723   -0.4402   -6.9549 N.am      7 UNK        -0.4718 
     45 CA         29.8870    0.7213   -6.0869 C.3       7 UNK         0.0273 
     46 CB         29.4710    0.3540   -4.6560 C.3       7 UNK        -0.1935 
     47 C          29.1583    1.9964   -6.5505 C.2       7 UNK         0.5018 
     48 O          29.6536    3.0927   -6.2891 O.2       7 UNK        -0.5186 
     49 N          28.0554    1.8424   -7.3009 N.am      8 UNK        -0.4240 
     50 CA         27.3724    2.9243   -8.0198 C.3       8 UNK         0.0235 
     51 CB         26.0873    2.3692   -8.6541 C.3       8 UNK        -0.2000 
     52 C          28.2488    3.6159   -9.0877 C.2       8 UNK         0.4941 
     53 O          27.9931    4.7763   -9.4104 O.2       8 UNK        -0.5273 
     54 N          29.2743    2.9129   -9.5887 N.am      9 UNK        -0.4262 
     55 CA         30.3203    3.4158  -10.4797 C.3       9 UNK         0.0264 
     56 CB         30.2857    2.6054  -11.7889 C.3       9 UNK        -0.1955 
     57 C          31.6985    3.3411   -9.7894 C.2       9 UNK         0.5031 
     58 O          32.7125    3.1632  -10.4681 O.2       9 UNK        -0.5390 
     59 N          31.7150    3.4493   -8.4499 N.am      10 UNK        -0.4204 
     60 CA         32.8850    3.4241   -7.5607 C.3       10 UNK         0.0237 
     61 CB         33.7382    4.6951   -7.7613 C.3       10 UNK        -0.1985 
     62 C          33.7243    2.1302   -7.6371 C.2       10 UNK         0.4970 
     63 O          34.9206    2.1705   -7.3443 O.2       10 UNK        -0.4914 
     64 N          33.0917    1.0133   -8.0239 N.am      11 UNK        -0.4285 
     65 CA         33.7049   -0.3105   -8.2299 C.3       11 UNK         0.1007 
     66 C          34.6897   -0.3702   -9.4376 C.2       11 UNK         0.5703 
     67 N          34.6565    0.5804  -10.3665 N.am      11 UNK        -0.7361 
     68 O          35.4735   -1.3088   -9.5592 O.2       11 UNK        -0.4986 
     69 C69        34.2799   -0.9402   -6.9250 C.3       12 UNK        -0.0947 
     70 S70        33.0301   -1.0654   -5.5987 S.3       12 UNK        -0.2240 
     71 C71        32.9454   -2.8625   -5.3181 C.3       12 UNK         0.0194 
     72 H72        26.3137   -4.3635    2.0468 H         1 UNK         0.0906 
     73 H73        27.4821   -3.2525    2.7654 H         1 UNK         0.0906 
     74 H74        28.0420   -4.6039    1.7784 H         1 UNK         0.0906 
     75 H75        27.5442   -1.3253    1.6872 H         1 UNK         0.3140 
     76 H76        27.6324    0.2794    0.2364 H         1 UNK         0.1085 
     77 H77        28.3545   -0.0465   -2.1321 H         1 UNK         0.0836 
     78 H78        28.2767   -1.7688   -1.9400 H         1 UNK         0.0836 
     79 H79        30.0446   -3.0939   -0.1397 H         1 UNK         0.0731 
     80 H80        31.6940   -2.5652   -0.3300 H         1 UNK         0.0731 
     81 H81        32.5716   -2.0705   -2.7259 H         1 UNK         0.1312 
     82 H82        30.8011   -4.4820   -5.8006 H         1 UNK         0.1406 
     83 H83        28.9373   -4.2137   -1.9530 H         1 UNK         0.1631 
     84 H84        28.5473   -6.2188   -3.7596 H         1 UNK         0.0717 
     85 H85        28.7916   -5.7020   -5.4106 H         1 UNK         0.0717 
     86 H86        27.0999   -2.1260   -4.8755 H         1 UNK         0.0934 
     87 H87        28.4108   -2.9769   -5.5960 H         1 UNK         0.0934 
     88 H88        26.6467   -4.0984   -7.1820 H         1 UNK         0.0739 
     89 H89        24.9263   -2.1940   -5.7936 H         1 UNK         0.3093 
     90 H90        22.2934   -2.3028   -8.0667 H         1 UNK         0.0818 
     91 H91        22.3275   -4.3045   -5.7396 H         1 UNK         0.0819 
     92 H92        20.8841   -3.6268   -6.4960 H         1 UNK         0.0819 
     93 H93        21.9430   -4.6844   -7.4120 H         1 UNK         0.0819 
     94 H94        22.4164   -1.9074   -5.1922 H         1 UNK         0.3041 
     95 H95        23.7146    1.3001   -5.2165 H         1 UNK         0.0784 
     96 H96        21.4670    1.9939   -6.0655 H         1 UNK         0.0793 
     97 H97        20.6906    0.8190   -5.0134 H         1 UNK         0.0793 
     98 H98        21.5718    2.1841   -4.3245 H         1 UNK         0.0793 
     99 H99        22.1986   -0.0076   -3.2067 H         1 UNK         0.3024 
    100 H100       23.3253   -0.8337   -1.4032 H         1 UNK         0.1171 
    101 H101       24.1416   -3.4477   -2.8058 H         1 UNK         0.0786 
    102 H102       22.4926   -2.8557   -2.6388 H         1 UNK         0.0786 
    103 H103       23.3981   -3.3311   -1.2122 H         1 UNK         0.0786 
    104 H104       25.7705   -2.3519   -1.2953 H         1 UNK         0.2977 
    105 H105       28.7191   -3.4956   -8.0360 H         1 UNK         0.3127 
    106 H106       28.8647   -1.3946   -9.9256 H         1 UNK         0.0770 
    107 H107       31.1167   -3.0041   -8.5933 H         1 UNK         0.0814 
    108 H108       31.2554   -2.0736  -10.0794 H         1 UNK         0.0814 
    109 H109       30.2248   -3.4910  -10.0368 H         1 UNK         0.0814 
    110 H110       29.2487   -1.2423   -6.5174 H         1 UNK         0.2983 
    111 H111       30.9544    0.9451   -6.0884 H         1 UNK         0.0947 
    112 H112       28.4090    0.1116   -4.5956 H         1 UNK         0.0806 
    113 H113       29.6580    1.1825   -3.9714 H         1 UNK         0.0806 
    114 H114       30.0348   -0.5023   -4.2835 H         1 UNK         0.0806 
    115 H115       27.7105    0.9028   -7.4672 H         1 UNK         0.3000 
    116 H116       27.0945    3.6840   -7.2863 H         1 UNK         0.0850 
    117 H117       25.5345    3.1539   -9.1725 H         1 UNK         0.0810 
    118 H118       25.4213    1.9480   -7.9002 H         1 UNK         0.0810 
    119 H119       26.3031    1.5850   -9.3810 H         1 UNK         0.0810 
    120 H120       29.4290    1.9634   -9.2576 H         1 UNK         0.3040 
    121 H121       30.1452    4.4662  -10.7199 H         1 UNK         0.0766 
    122 H122       29.3052    2.6595  -12.2620 H         1 UNK         0.0812 
    123 H123       30.5169    1.5536  -11.6143 H         1 UNK         0.0812 
    124 H124       31.0121    2.9864  -12.5078 H         1 UNK         0.0812 
    125 H125       30.8262    3.5551   -7.9719 H         1 UNK         0.3205 
    126 H126       32.4874    3.4546   -6.5452 H         1 UNK         0.0754 
    127 H127       34.5246    4.7654   -7.0087 H         1 UNK         0.0769 
    128 H128       33.1321    5.5971   -7.6763 H         1 UNK         0.0769 
    129 H129       34.2213    4.7062   -8.7390 H         1 UNK         0.0769 
    130 H130       32.1140    1.0671   -8.2924 H         1 UNK         0.2981 
    131 H131       32.8824   -0.9527   -8.5411 H         1 UNK         0.0541 
    132 H132       34.0135    1.3588  -10.2906 H         1 UNK         0.3459 
    133 H133       35.2886    0.5259  -11.1489 H         1 UNK         0.3459 
    134 H134       34.6749   -1.9374   -7.1253 H         1 UNK         0.0612 
    135 H135       35.1218   -0.3564   -6.5512 H         1 UNK         0.0612 
    136 H136       33.8945   -3.2065   -4.9050 H         1 UNK         0.0624 
    137 H137       32.8206   -3.3632   -6.2795 H         1 UNK         0.0624 
@<TRIPOS>BOND
     1    1    2 1    
     2    1   72 1    
     3    1   73 1    
     4    1   74 1    
     5    2    3 2    
     6    2    4 am   BACKBONE|DICT|INTERRES
     7    4    5 1    
     8    4   75 1    
     9    5    6 1    
    10    5   35 1    
    11    5   76 1    
    12    6    7 1    
    13    6   77 1    
    14    6   78 1    
    15    7    8 1    
    16    8    9 1    
    17    8   79 1    
    18    8   80 1    
    19    9   10 ar   
    20    9   14 ar   
    21   10   11 ar   
    22   10   81 1    
    23   11   12 ar   
    24   11   71 1    
    25   12   13 ar   
    26   12   82 1    
    27   13   14 ar   
    28   13   15 1    
    29   14   83 1    
    30   15   16 1    
    31   15   84 1    
    32   15   85 1    
    33   16   17 1    
    34   17   18 1    
    35   17   86 1    
    36   17   87 1    
    37   18   19 1    
    38   18   37 1    
    39   18   88 1    
    40   19   20 am   BACKBONE|DICT|INTERRES
    41   19   89 1    
    42   20   21 2    
    43   20   22 1    
    44   22   23 1    
    45   22   24 1    
    46   22   90 1    
    47   23   91 1    
    48   23   92 1    
    49   23   93 1    
    50   24   25 am   BACKBONE|DICT|INTERRES
    51   24   94 1    
    52   25   26 2    
    53   25   27 1    
    54   27   28 1    
    55   27   29 1    
    56   27   95 1    
    57   28   96 1    
    58   28   97 1    
    59   28   98 1    
    60   29   30 am   BACKBONE|DICT|INTERRES
    61   29   99 1    
    62   30   31 2    
    63   30   32 1    
    64   32   33 1    
    65   32   34 1    
    66   32  100 1    
    67   33  101 1    
    68   33  102 1    
    69   33  103 1    
    70   34   35 am   BACKBONE|DICT|INTERRES
    71   34  104 1    
    72   35   36 2    
    73   37   38 2    
    74   37   39 am   BACKBONE|DICT|INTERRES
    75   39   40 1    
    76   39  105 1    
    77   40   41 1    
    78   40   42 1    
    79   40  106 1    
    80   41  107 1    
    81   41  108 1    
    82   41  109 1    
    83   42   43 2    
    84   42   44 am   BACKBONE|DICT|INTERRES
    85   44   45 1    
    86   44  110 1    
    87   45   46 1    
    88   45   47 1    
    89   45  111 1    
    90   46  112 1    
    91   46  113 1    
    92   46  114 1    
    93   47   48 2    
    94   47   49 am   BACKBONE|DICT|INTERRES
    95   49   50 1    
    96   49  115 1    
    97   50   51 1    
    98   50   52 1    
    99   50  116 1    
   100   51  117 1    
   101   51  118 1    
   102   51  119 1    
   103   52   53 2    
   104   52   54 am   BACKBONE|DICT|INTERRES
   105   54   55 1    
   106   54  120 1    
   107   55   56 1    
   108   55   57 1    
   109   55  121 1    
   110   56  122 1    
   111   56  123 1    
   112   56  124 1    
   113   57   58 2    
   114   57   59 am   BACKBONE|DICT|INTERRES
   115   59   60 1    
   116   59  125 1    
   117   60   61 1    
   118   60   62 1    
   119   60  126 1    
   120   61  127 1    
   121   61  128 1    
   122   61  129 1    
   123   62   63 2    
   124   62   64 am   BACKBONE|DICT|INTERRES
   125   64   65 1    
   126   64  130 1    
   127   65   66 1    
   128   65   69 1    
   129   65  131 1    
   130   66   67 am   BACKBONE|DICT|INTERRES
   131   66   68 2    
   132   67  132 1    
   133   67  133 1    
   134   69   70 1    
   135   69  134 1    
   136   69  135 1    
   137   70   71 1    
   138   71  136 1    
   139   71  137 1    
@<TRIPOS>SUBSTRUCTURE
     1 UNK         1 GROUP             0       ****    0 ROOT    
