@<TRIPOS>MOLECULE
3R137
137   139    1
SMALL
USER_CHARGES


@<TRIPOS>ATOM
      1 CA         29.2533   -6.2093   -0.3228 C.3       0 UNK        -0.2020 
      2 C          28.4370   -5.0414   -0.8555 C.2       0 UNK         0.4855 
      3 O          28.3636   -3.9993   -0.2041 O.2       0 UNK        -0.5197 
      4 N          27.8290   -5.2058   -2.0341 N.am      1 UNK        -0.4892 
      5 CA         27.0091   -4.1947   -2.6984 C.3       1 UNK         0.0835 
      6 C6         27.8254   -3.0424   -3.3543 C.3       12 UNK        -0.0855 
      7 S7         29.2202   -3.5652   -4.4158 S.3       12 UNK        -0.2931 
      8 C8         30.6508   -3.0618   -3.4042 C.3       12 UNK         0.0378 
      9 C9         30.8128   -1.5482   -3.3655 C.ar      12 UNK        -0.0802 
     10 C10        31.3749   -0.8818   -4.4566 C.ar      12 UNK        -0.0944 
     11 C11        31.5316    0.5072   -4.4390 C.ar      12 UNK        -0.0787 
     12 C12        31.1153    1.2313   -3.3201 C.ar      12 UNK        -0.0862 
     13 C13        30.5181    0.5807   -2.2359 C.ar      12 UNK        -0.0733 
     14 C14        30.3924   -0.8118   -2.2527 C.ar      12 UNK        -0.0832 
     15 C15        29.9615    1.3876   -1.0712 C.3       12 UNK         0.0240 
     16 S16        28.1588    1.6393   -1.2296 S.3       12 UNK        -0.2522 
     17 C17        28.0459    2.5653   -2.7989 C.3       12 UNK        -0.0967 
     18 CA         27.6677    1.6278   -3.9812 C.3       5 UNK         0.0660 
     19 N          26.2475    1.2462   -3.9679 N.am      5 UNK        -0.4015 
     20 C          25.1800    1.9936   -4.2837 C.2       4 UNK         0.4946 
     21 O          25.2506    3.1125   -4.7960 O.2       4 UNK        -0.5353 
     22 CA         23.7944    1.3876   -3.9670 C.3       4 UNK         0.0277 
     23 CB         22.6745    2.4447   -4.0160 C.3       4 UNK        -0.1981 
     24 N          23.4249    0.2743   -4.8470 N.am      4 UNK        -0.4209 
     25 C          23.9906   -0.9378   -4.8400 C.2       3 UNK         0.4942 
     26 O          24.9161   -1.2463   -4.0815 O.2       3 UNK        -0.5208 
     27 CA         23.4442   -1.9783   -5.8331 C.3       3 UNK         0.0250 
     28 CB         23.3366   -1.4340   -7.2728 C.3       3 UNK        -0.1990 
     29 N          24.3532   -3.1153   -5.7819 N.am      3 UNK        -0.4232 
     30 C          24.1724   -4.3611   -6.2288 C.2       2 UNK         0.4993 
     31 O          23.1597   -4.7442   -6.8149 O.2       2 UNK        -0.5286 
     32 CA         25.3299   -5.3493   -5.9752 C.3       2 UNK         0.0209 
     33 CB         26.1123   -5.6060   -7.2738 C.3       2 UNK        -0.1931 
     34 N          26.2621   -4.8800   -4.9400 N.am      2 UNK        -0.4546 
     35 C          26.0088   -4.9040   -3.6248 C.2       1 UNK         0.5154 
     36 O          25.0197   -5.4513   -3.1345 O.2       1 UNK        -0.5181 
     37 C          28.1270    2.1681   -5.3503 C.2       5 UNK         0.5014 
     38 O          28.5244    1.3800   -6.2095 O.2       5 UNK        -0.5248 
     39 N          28.0387    3.4896   -5.5569 N.am      6 UNK        -0.4434 
     40 CA         28.3264    4.1595   -6.8293 C.3       6 UNK         0.0363 
     41 CB         28.2300    5.6807   -6.6353 C.3       6 UNK        -0.1936 
     42 C          27.4147    3.7024   -7.9845 C.2       6 UNK         0.5081 
     43 O          27.8344    3.7649   -9.1394 O.2       6 UNK        -0.5248 
     44 N          26.2061    3.2197   -7.6579 N.am      7 UNK        -0.4718 
     45 CA         25.2945    2.5749   -8.6059 C.3       7 UNK         0.0273 
     46 CB         23.8882    2.5049   -7.9912 C.3       7 UNK        -0.1935 
     47 C          25.7631    1.1716   -9.0372 C.2       7 UNK         0.5018 
     48 O          25.3949    0.7333  -10.1272 O.2       7 UNK        -0.5186 
     49 N          26.5501    0.4911   -8.1890 N.am      8 UNK        -0.4240 
     50 CA         27.1690   -0.8004   -8.4953 C.3       8 UNK         0.0235 
     51 CB         27.4130   -1.5960   -7.1994 C.3       8 UNK        -0.2000 
     52 C          28.4838   -0.5976   -9.2584 C.2       8 UNK         0.4941 
     53 O          28.7144   -1.2785  -10.2570 O.2       8 UNK        -0.5273 
     54 N          29.3183    0.3303   -8.7613 N.am      9 UNK        -0.4262 
     55 CA         30.6143    0.7614   -9.3074 C.3       9 UNK         0.0264 
     56 CB         30.4373    1.4113  -10.6952 C.3       9 UNK        -0.1955 
     57 C          31.7113   -0.3255   -9.3132 C.2       9 UNK         0.5031 
     58 O          32.7695   -0.1126   -9.9080 O.2       9 UNK        -0.5390 
     59 N          31.4767   -1.4470   -8.6148 N.am      10 UNK        -0.4204 
     60 CA         32.3691   -2.6100   -8.5228 C.3       10 UNK         0.0237 
     61 CB         31.6442   -3.7334   -7.7623 C.3       10 UNK        -0.1985 
     62 C          33.7389   -2.3201   -7.8795 C.2       10 UNK         0.4970 
     63 O          34.6875   -3.0680   -8.1176 O.2       10 UNK        -0.4914 
     64 N          33.8146   -1.2443   -7.0886 N.am      11 UNK        -0.4285 
     65 CA         35.0377   -0.7101   -6.4828 C.3       11 UNK         0.1007 
     66 C          35.9745    0.0469   -7.4719 C.2       11 UNK         0.5703 
     67 N          35.5623    0.3308   -8.7037 N.am      11 UNK        -0.7361 
     68 O          37.1062    0.3678   -7.1168 O.2       11 UNK        -0.4986 
     69 C69        34.7121    0.1064   -5.2019 C.3       12 UNK        -0.0947 
     70 S70        33.8453    1.6968   -5.4732 S.3       12 UNK        -0.2240 
     71 C71        32.0914    1.2345   -5.6506 C.3       12 UNK         0.0194 
     72 H72        28.8468   -6.5474    0.6299 H         1 UNK         0.0906 
     73 H73        29.2547   -7.0543   -1.0109 H         1 UNK         0.0906 
     74 H74        30.2868   -5.9019   -0.1630 H         1 UNK         0.0906 
     75 H75        27.8996   -6.0884   -2.5226 H         1 UNK         0.3140 
     76 H76        26.3816   -3.7302   -1.9334 H         1 UNK         0.1085 
     77 H77        27.1806   -2.3925   -3.9447 H         1 UNK         0.0836 
     78 H78        28.2000   -2.3998   -2.5598 H         1 UNK         0.0836 
     79 H79        30.5489   -3.4671   -2.3966 H         1 UNK         0.0731 
     80 H80        31.5525   -3.5115   -3.8226 H         1 UNK         0.0731 
     81 H81        31.6788   -1.4520   -5.3214 H         1 UNK         0.1312 
     82 H82        31.2235    2.3071   -3.3136 H         1 UNK         0.1406 
     83 H83        29.9377   -1.3169   -1.4108 H         1 UNK         0.1631 
     84 H84        30.4591    2.3561   -0.9996 H         1 UNK         0.0717 
     85 H85        30.1664    0.8692   -0.1334 H         1 UNK         0.0717 
     86 H86        27.3073    3.3597   -2.6791 H         1 UNK         0.0934 
     87 H87        28.9967    3.0727   -2.9675 H         1 UNK         0.0934 
     88 H88        28.2151    0.6917   -3.8595 H         1 UNK         0.0739 
     89 H89        26.0535    0.2966   -3.6639 H         1 UNK         0.3093 
     90 H90        23.8400    1.0092   -2.9433 H         1 UNK         0.0818 
     91 H91        21.7201    2.0290   -3.6927 H         1 UNK         0.0819 
     92 H92        22.9000    3.2827   -3.3548 H         1 UNK         0.0819 
     93 H93        22.5421    2.8505   -5.0198 H         1 UNK         0.0819 
     94 H94        22.6723    0.4504   -5.4962 H         1 UNK         0.3041 
     95 H95        22.4608   -2.2980   -5.4834 H         1 UNK         0.0784 
     96 H96        22.6282   -0.6083   -7.3410 H         1 UNK         0.0793 
     97 H97        24.2969   -1.0761   -7.6393 H         1 UNK         0.0793 
     98 H98        22.9884   -2.2023   -7.9631 H         1 UNK         0.0793 
     99 H99        25.1836   -2.9182   -5.2378 H         1 UNK         0.3024 
    100 H100       24.8862   -6.2923   -5.6471 H         1 UNK         0.1171 
    101 H101       25.4570   -6.0014   -8.0513 H         1 UNK         0.0786 
    102 H102       26.9077   -6.3357   -7.1208 H         1 UNK         0.0786 
    103 H103       26.5631   -4.6930   -7.6631 H         1 UNK         0.0786 
    104 H104       27.1291   -4.4566   -5.2483 H         1 UNK         0.2977 
    105 H105       27.6214    4.0576   -4.8331 H         1 UNK         0.3127 
    106 H106       29.3527    3.9116   -7.1085 H         1 UNK         0.0770 
    107 H107       27.2279    5.9857   -6.3311 H         1 UNK         0.0814 
    108 H108       28.4638    6.2070   -7.5619 H         1 UNK         0.0814 
    109 H109       28.9336    6.0308   -5.8799 H         1 UNK         0.0814 
    110 H110       25.9228    3.2366   -6.6815 H         1 UNK         0.2983 
    111 H111       25.2430    3.1931   -9.5050 H         1 UNK         0.0947 
    112 H112       23.1744    2.0773   -8.6967 H         1 UNK         0.0806 
    113 H113       23.5227    3.4951   -7.7189 H         1 UNK         0.0806 
    114 H114       23.8735    1.8845   -7.0968 H         1 UNK         0.0806 
    115 H115       26.8691    0.9526   -7.3458 H         1 UNK         0.3000 
    116 H116       26.4926   -1.3824   -9.1256 H         1 UNK         0.0850 
    117 H117       27.7757   -2.5992   -7.4239 H         1 UNK         0.0810 
    118 H118       28.1544   -1.1291   -6.5511 H         1 UNK         0.0810 
    119 H119       26.4981   -1.7007   -6.6222 H         1 UNK         0.0810 
    120 H120       29.0385    0.7886   -7.8947 H         1 UNK         0.3040 
    121 H121       30.9711    1.5403   -8.6324 H         1 UNK         0.0766 
    122 H122       29.6806    2.1958  -10.6708 H         1 UNK         0.0812 
    123 H123       30.1413    0.6825  -11.4501 H         1 UNK         0.0812 
    124 H124       31.3663    1.8704  -11.0354 H         1 UNK         0.0812 
    125 H125       30.5735   -1.5363   -8.1737 H         1 UNK         0.3205 
    126 H126       32.5611   -2.9538   -9.5413 H         1 UNK         0.0754 
    127 H127       32.2635   -4.6296   -7.7044 H         1 UNK         0.0769 
    128 H128       30.7164   -4.0167   -8.2602 H         1 UNK         0.0769 
    129 H129       31.3999   -3.4414   -6.7404 H         1 UNK         0.0769 
    130 H130       32.9933   -0.6732   -6.9823 H         1 UNK         0.2981 
    131 H131       35.6200   -1.5721   -6.1519 H         1 UNK         0.0541 
    132 H132       36.1870    0.8147   -9.3284 H         1 UNK         0.3459 
    133 H133       34.6323    0.0809   -9.0193 H         1 UNK         0.3459 
    134 H134       35.6405    0.3356   -4.6761 H         1 UNK         0.0612 
    135 H135       34.1406   -0.5041   -4.5028 H         1 UNK         0.0612 
    136 H136       31.9552    0.6364   -6.5478 H         1 UNK         0.0624 
    137 H137       31.5125    2.1441   -5.8191 H         1 UNK         0.0624 
@<TRIPOS>BOND
     1    1    2 1    
     2    1   72 1    
     3    1   73 1    
     4    1   74 1    
     5    2    3 2    
     6    2    4 am   BACKBONE|DICT|INTERRES
     7    4    5 1    
     8    4   75 1    
     9    5    6 1    
    10    5   35 1    
    11    5   76 1    
    12    6    7 1    
    13    6   77 1    
    14    6   78 1    
    15    7    8 1    
    16    8    9 1    
    17    8   79 1    
    18    8   80 1    
    19    9   10 ar   
    20    9   14 ar   
    21   10   11 ar   
    22   10   81 1    
    23   11   12 ar   
    24   11   71 1    
    25   12   13 ar   
    26   12   82 1    
    27   13   14 ar   
    28   13   15 1    
    29   14   83 1    
    30   15   16 1    
    31   15   84 1    
    32   15   85 1    
    33   16   17 1    
    34   17   18 1    
    35   17   86 1    
    36   17   87 1    
    37   18   19 1    
    38   18   37 1    
    39   18   88 1    
    40   19   20 am   BACKBONE|DICT|INTERRES
    41   19   89 1    
    42   20   21 2    
    43   20   22 1    
    44   22   23 1    
    45   22   24 1    
    46   22   90 1    
    47   23   91 1    
    48   23   92 1    
    49   23   93 1    
    50   24   25 am   BACKBONE|DICT|INTERRES
    51   24   94 1    
    52   25   26 2    
    53   25   27 1    
    54   27   28 1    
    55   27   29 1    
    56   27   95 1    
    57   28   96 1    
    58   28   97 1    
    59   28   98 1    
    60   29   30 am   BACKBONE|DICT|INTERRES
    61   29   99 1    
    62   30   31 2    
    63   30   32 1    
    64   32   33 1    
    65   32   34 1    
    66   32  100 1    
    67   33  101 1    
    68   33  102 1    
    69   33  103 1    
    70   34   35 am   BACKBONE|DICT|INTERRES
    71   34  104 1    
    72   35   36 2    
    73   37   38 2    
    74   37   39 am   BACKBONE|DICT|INTERRES
    75   39   40 1    
    76   39  105 1    
    77   40   41 1    
    78   40   42 1    
    79   40  106 1    
    80   41  107 1    
    81   41  108 1    
    82   41  109 1    
    83   42   43 2    
    84   42   44 am   BACKBONE|DICT|INTERRES
    85   44   45 1    
    86   44  110 1    
    87   45   46 1    
    88   45   47 1    
    89   45  111 1    
    90   46  112 1    
    91   46  113 1    
    92   46  114 1    
    93   47   48 2    
    94   47   49 am   BACKBONE|DICT|INTERRES
    95   49   50 1    
    96   49  115 1    
    97   50   51 1    
    98   50   52 1    
    99   50  116 1    
   100   51  117 1    
   101   51  118 1    
   102   51  119 1    
   103   52   53 2    
   104   52   54 am   BACKBONE|DICT|INTERRES
   105   54   55 1    
   106   54  120 1    
   107   55   56 1    
   108   55   57 1    
   109   55  121 1    
   110   56  122 1    
   111   56  123 1    
   112   56  124 1    
   113   57   58 2    
   114   57   59 am   BACKBONE|DICT|INTERRES
   115   59   60 1    
   116   59  125 1    
   117   60   61 1    
   118   60   62 1    
   119   60  126 1    
   120   61  127 1    
   121   61  128 1    
   122   61  129 1    
   123   62   63 2    
   124   62   64 am   BACKBONE|DICT|INTERRES
   125   64   65 1    
   126   64  130 1    
   127   65   66 1    
   128   65   69 1    
   129   65  131 1    
   130   66   67 am   BACKBONE|DICT|INTERRES
   131   66   68 2    
   132   67  132 1    
   133   67  133 1    
   134   69   70 1    
   135   69  134 1    
   136   69  135 1    
   137   70   71 1    
   138   71  136 1    
   139   71  137 1    
@<TRIPOS>SUBSTRUCTURE
     1 UNK         1 GROUP             0       ****    0 ROOT    
