@<TRIPOS>MOLECULE
3R137
137   139    1
SMALL
USER_CHARGES


@<TRIPOS>ATOM
      1 CA         26.4916   -5.3627    1.7418 C.3       0 UNK        -0.2020 
      2 C          27.6097   -5.1970    0.7163 C.2       0 UNK         0.4855 
      3 O          28.0956   -6.1930    0.1855 O.2       0 UNK        -0.5197 
      4 N          28.0579   -3.9732    0.4020 N.am      1 UNK        -0.4892 
      5 CA         27.5635   -2.6822    0.9037 C.3       1 UNK         0.0835 
      6 C6         28.6389   -1.5710    0.7549 C.3       12 UNK        -0.0855 
      7 S7         29.0487   -1.1380   -0.9749 S.3       12 UNK        -0.2931 
      8 C8         30.5225   -2.1589   -1.2835 C.3       12 UNK         0.0378 
      9 C9         30.5870   -2.6276   -2.7308 C.ar      12 UNK        -0.0802 
     10 C10        31.6676   -2.2716   -3.5430 C.ar      12 UNK        -0.0944 
     11 C11        31.7634   -2.7595   -4.8497 C.ar      12 UNK        -0.0787 
     12 C12        30.7541   -3.5883   -5.3547 C.ar      12 UNK        -0.0862 
     13 C13        29.6698   -3.9552   -4.5507 C.ar      12 UNK        -0.0733 
     14 C14        29.5923   -3.4678   -3.2430 C.ar      12 UNK        -0.0832 
     15 C15        28.6254   -4.9466   -5.0486 C.3       12 UNK         0.0240 
     16 S16        26.9882   -4.1851   -5.2972 S.3       12 UNK        -0.2522 
     17 C17        26.9062   -3.9733   -7.1093 C.3       12 UNK        -0.0967 
     18 CA         26.6043   -2.5298   -7.5797 C.3       5 UNK         0.0660 
     19 N          25.3852   -1.9612   -6.9952 N.am      5 UNK        -0.4015 
     20 C          24.7559   -0.8865   -7.4934 C.2       4 UNK         0.4946 
     21 O          25.1349   -0.2707   -8.4906 O.2       4 UNK        -0.5353 
     22 CA         23.5083   -0.3976   -6.7413 C.3       4 UNK         0.0277 
     23 CB         22.3451   -1.3925   -6.8914 C.3       4 UNK        -0.1981 
     24 N          23.7515   -0.1272   -5.3226 N.am      4 UNK        -0.4209 
     25 C          24.6277    0.7714   -4.8492 C.2       3 UNK         0.4942 
     26 O          25.3673    1.4498   -5.5584 O.2       3 UNK        -0.5208 
     27 CA         24.6986    0.9507   -3.3238 C.3       3 UNK         0.0250 
     28 CB         23.7697    2.0901   -2.8749 C.3       3 UNK        -0.1990 
     29 N          24.3874   -0.2618   -2.5621 N.am      3 UNK        -0.4232 
     30 C          25.1217   -1.3807   -2.5990 C.2       2 UNK         0.4993 
     31 O          26.0978   -1.5371   -3.3355 O.2       2 UNK        -0.5286 
     32 CA         24.6898   -2.5179   -1.6629 C.3       2 UNK         0.0209 
     33 CB         24.1921   -3.7344   -2.4601 C.3       2 UNK        -0.1931 
     34 N          25.8270   -2.9095   -0.8354 N.am      2 UNK        -0.4546 
     35 C          26.2157   -2.2616    0.2720 C.2       1 UNK         0.5154 
     36 O          25.5572   -1.3633    0.7988 O.2       1 UNK        -0.5181 
     37 C          27.8135   -1.5942   -7.4165 C.2       5 UNK         0.5014 
     38 O          28.5916   -1.4581   -8.3618 O.2       5 UNK        -0.5248 
     39 N          27.9170   -0.9325   -6.2543 N.am      6 UNK        -0.4434 
     40 CA         28.9501    0.0587   -5.9621 C.3       6 UNK         0.0363 
     41 CB         28.8403    0.5095   -4.4996 C.3       6 UNK        -0.1936 
     42 C          28.9049    1.2603   -6.9191 C.2       6 UNK         0.5081 
     43 O          29.9504    1.6639   -7.4250 O.2       6 UNK        -0.5248 
     44 N          27.7011    1.7857   -7.1871 N.am      7 UNK        -0.4718 
     45 CA         27.4691    2.8538   -8.1598 C.3       7 UNK         0.0273 
     46 CB         26.0407    3.4004   -8.0096 C.3       7 UNK        -0.1935 
     47 C          27.7276    2.4021   -9.6048 C.2       7 UNK         0.5018 
     48 O          28.3915    3.1280  -10.3449 O.2       7 UNK        -0.5186 
     49 N          27.2207    1.2162   -9.9765 N.am      8 UNK        -0.4240 
     50 CA         27.3586    0.6400  -11.3185 C.3       8 UNK         0.0235 
     51 CB         26.5043   -0.6321  -11.4346 C.3       8 UNK        -0.2000 
     52 C          28.8150    0.3498  -11.7156 C.2       8 UNK         0.4941 
     53 O          29.2066    0.6672  -12.8394 O.2       8 UNK        -0.5273 
     54 N          29.5920   -0.2293  -10.7907 N.am      9 UNK        -0.4262 
     55 CA         31.0132   -0.5297  -10.9843 C.3       9 UNK         0.0264 
     56 CB         31.3791   -1.7592  -10.1383 C.3       9 UNK        -0.1955 
     57 C          31.9437    0.6623  -10.6806 C.2       9 UNK         0.5031 
     58 O          33.1408    0.5564  -10.9524 O.2       9 UNK        -0.5390 
     59 N          31.3941    1.7620  -10.1399 N.am      10 UNK        -0.4204 
     60 CA         32.0742    2.9965   -9.7229 C.3       10 UNK         0.0237 
     61 CB         32.6334    3.7579  -10.9437 C.3       10 UNK        -0.1985 
     62 C          33.1267    2.7459   -8.6241 C.2       10 UNK         0.4970 
     63 O          34.2660    3.2054   -8.7309 O.2       10 UNK        -0.4914 
     64 N          32.7182    1.9955   -7.5972 N.am      11 UNK        -0.4285 
     65 CA         33.5338    1.6032   -6.4420 C.3       11 UNK         0.1007 
     66 C          33.7889    2.7850   -5.4689 C.2       11 UNK         0.5703 
     67 N          34.9084    2.7681   -4.7577 N.am      11 UNK        -0.7361 
     68 O          32.9731    3.6942   -5.3237 O.2       11 UNK        -0.4986 
     69 C69        32.9063    0.3935   -5.7012 C.3       12 UNK        -0.0947 
     70 S70        32.7223   -1.0445   -6.8084 S.3       12 UNK        -0.2240 
     71 C71        32.9923   -2.4490   -5.6920 C.3       12 UNK         0.0194 
     72 H72        26.7703   -4.9261    2.7002 H         1 UNK         0.0906 
     73 H73        25.5678   -4.9004    1.3960 H         1 UNK         0.0906 
     74 H74        26.2860   -6.4195    1.9114 H         1 UNK         0.0906 
     75 H75        28.8072   -3.9021   -0.2693 H         1 UNK         0.3140 
     76 H76        27.3741   -2.7868    1.9736 H         1 UNK         0.1085 
     77 H77        28.2987   -0.6599    1.2512 H         1 UNK         0.0836 
     78 H78        29.5497   -1.8584    1.2830 H         1 UNK         0.0836 
     79 H79        30.5253   -3.0353   -0.6351 H         1 UNK         0.0731 
     80 H80        31.4090   -1.5812   -1.0174 H         1 UNK         0.0731 
     81 H81        32.4517   -1.6394   -3.1496 H         1 UNK         0.1312 
     82 H82        30.8336   -3.9744   -6.3618 H         1 UNK         0.1406 
     83 H83        28.7572   -3.7554   -2.6200 H         1 UNK         0.1631 
     84 H84        28.5190   -5.7372   -4.3044 H         1 UNK         0.0717 
     85 H85        28.9607   -5.4463   -5.9581 H         1 UNK         0.0717 
     86 H86        27.8249   -4.3326   -7.5763 H         1 UNK         0.0934 
     87 H87        26.1223   -4.6379   -7.4756 H         1 UNK         0.0934 
     88 H88        26.4248   -2.5970   -8.6549 H         1 UNK         0.0739 
     89 H89        25.0474   -2.3914   -6.1463 H         1 UNK         0.3093 
     90 H90        23.2045    0.5451   -7.2018 H         1 UNK         0.0818 
     91 H91        21.4232   -0.9893   -6.4719 H         1 UNK         0.0819 
     92 H92        22.1508   -1.6091   -7.9429 H         1 UNK         0.0819 
     93 H93        22.5512   -2.3419   -6.3957 H         1 UNK         0.0819 
     94 H94        23.1892   -0.6358   -4.6567 H         1 UNK         0.3041 
     95 H95        25.7245    1.2349   -3.0803 H         1 UNK         0.0784 
     96 H96        23.9980    3.0127   -3.4110 H         1 UNK         0.0793 
     97 H97        22.7210    1.8558   -3.0621 H         1 UNK         0.0793 
     98 H98        23.8838    2.3004   -1.8112 H         1 UNK         0.0793 
     99 H99        23.6036   -0.2081   -1.9271 H         1 UNK         0.3024 
    100 H100       23.8765   -2.1745   -1.0190 H         1 UNK         0.1171 
    101 H101       23.8570   -4.5316   -1.7964 H         1 UNK         0.0786 
    102 H102       23.3486   -3.4664   -3.0976 H         1 UNK         0.0786 
    103 H103       24.9710   -4.1429   -3.1041 H         1 UNK         0.0786 
    104 H104       26.4551   -3.5950   -1.2279 H         1 UNK         0.2977 
    105 H105       27.2481   -1.1273   -5.5196 H         1 UNK         0.3127 
    106 H106       29.9124   -0.4377   -6.0936 H         1 UNK         0.0770 
    107 H107       27.8868    0.9966   -4.2958 H         1 UNK         0.0814 
    108 H108       28.9321   -0.3402   -3.8237 H         1 UNK         0.0814 
    109 H109       29.6323    1.2148   -4.2462 H         1 UNK         0.0814 
    110 H110       26.8833    1.4369   -6.6912 H         1 UNK         0.2983 
    111 H111       28.1666    3.6647   -7.9379 H         1 UNK         0.0947 
    112 H112       25.8785    3.8126   -7.0135 H         1 UNK         0.0806 
    113 H113       25.2920    2.6242   -8.1742 H         1 UNK         0.0806 
    114 H114       25.8489    4.1996   -8.7268 H         1 UNK         0.0806 
    115 H115       26.6542    0.6948   -9.3119 H         1 UNK         0.3000 
    116 H116       26.9676    1.3732  -12.0272 H         1 UNK         0.0850 
    117 H117       26.5774   -1.0630  -12.4341 H         1 UNK         0.0810 
    118 H118       25.4509   -0.4207  -11.2498 H         1 UNK         0.0810 
    119 H119       26.8222   -1.3962  -10.7251 H         1 UNK         0.0810 
    120 H120       29.1853   -0.5057   -9.8978 H         1 UNK         0.3040 
    121 H121       31.1803   -0.7939  -12.0307 H         1 UNK         0.0766 
    122 H122       31.1418   -1.6026   -9.0875 H         1 UNK         0.0812 
    123 H123       32.4433   -1.9892  -10.2055 H         1 UNK         0.0812 
    124 H124       30.8335   -2.6424  -10.4703 H         1 UNK         0.0812 
    125 H125       30.4038    1.7306   -9.9349 H         1 UNK         0.3205 
    126 H126       31.3057    3.6244   -9.2690 H         1 UNK         0.0754 
    127 H127       33.0378    4.7264  -10.6473 H         1 UNK         0.0769 
    128 H128       31.8544    3.9447  -11.6829 H         1 UNK         0.0769 
    129 H129       33.4365    3.2068  -11.4341 H         1 UNK         0.0769 
    130 H130       31.7371    1.7235   -7.5608 H         1 UNK         0.2981 
    131 H131       34.5050    1.2885   -6.8298 H         1 UNK         0.0541 
    132 H132       35.5810    2.0240   -4.8598 H         1 UNK         0.3459 
    133 H133       35.0878    3.5193   -4.1098 H         1 UNK         0.3459 
    134 H134       31.9274    0.6512   -5.2947 H         1 UNK         0.0612 
    135 H135       33.5281    0.1067   -4.8516 H         1 UNK         0.0612 
    136 H136       33.8603   -2.2585   -5.0591 H         1 UNK         0.0624 
    137 H137       33.2469   -3.3222   -6.2944 H         1 UNK         0.0624 
@<TRIPOS>BOND
     1    1    2 1    
     2    1   72 1    
     3    1   73 1    
     4    1   74 1    
     5    2    3 2    
     6    2    4 am   BACKBONE|DICT|INTERRES
     7    4    5 1    
     8    4   75 1    
     9    5    6 1    
    10    5   35 1    
    11    5   76 1    
    12    6    7 1    
    13    6   77 1    
    14    6   78 1    
    15    7    8 1    
    16    8    9 1    
    17    8   79 1    
    18    8   80 1    
    19    9   10 ar   
    20    9   14 ar   
    21   10   11 ar   
    22   10   81 1    
    23   11   12 ar   
    24   11   71 1    
    25   12   13 ar   
    26   12   82 1    
    27   13   14 ar   
    28   13   15 1    
    29   14   83 1    
    30   15   16 1    
    31   15   84 1    
    32   15   85 1    
    33   16   17 1    
    34   17   18 1    
    35   17   86 1    
    36   17   87 1    
    37   18   19 1    
    38   18   37 1    
    39   18   88 1    
    40   19   20 am   BACKBONE|DICT|INTERRES
    41   19   89 1    
    42   20   21 2    
    43   20   22 1    
    44   22   23 1    
    45   22   24 1    
    46   22   90 1    
    47   23   91 1    
    48   23   92 1    
    49   23   93 1    
    50   24   25 am   BACKBONE|DICT|INTERRES
    51   24   94 1    
    52   25   26 2    
    53   25   27 1    
    54   27   28 1    
    55   27   29 1    
    56   27   95 1    
    57   28   96 1    
    58   28   97 1    
    59   28   98 1    
    60   29   30 am   BACKBONE|DICT|INTERRES
    61   29   99 1    
    62   30   31 2    
    63   30   32 1    
    64   32   33 1    
    65   32   34 1    
    66   32  100 1    
    67   33  101 1    
    68   33  102 1    
    69   33  103 1    
    70   34   35 am   BACKBONE|DICT|INTERRES
    71   34  104 1    
    72   35   36 2    
    73   37   38 2    
    74   37   39 am   BACKBONE|DICT|INTERRES
    75   39   40 1    
    76   39  105 1    
    77   40   41 1    
    78   40   42 1    
    79   40  106 1    
    80   41  107 1    
    81   41  108 1    
    82   41  109 1    
    83   42   43 2    
    84   42   44 am   BACKBONE|DICT|INTERRES
    85   44   45 1    
    86   44  110 1    
    87   45   46 1    
    88   45   47 1    
    89   45  111 1    
    90   46  112 1    
    91   46  113 1    
    92   46  114 1    
    93   47   48 2    
    94   47   49 am   BACKBONE|DICT|INTERRES
    95   49   50 1    
    96   49  115 1    
    97   50   51 1    
    98   50   52 1    
    99   50  116 1    
   100   51  117 1    
   101   51  118 1    
   102   51  119 1    
   103   52   53 2    
   104   52   54 am   BACKBONE|DICT|INTERRES
   105   54   55 1    
   106   54  120 1    
   107   55   56 1    
   108   55   57 1    
   109   55  121 1    
   110   56  122 1    
   111   56  123 1    
   112   56  124 1    
   113   57   58 2    
   114   57   59 am   BACKBONE|DICT|INTERRES
   115   59   60 1    
   116   59  125 1    
   117   60   61 1    
   118   60   62 1    
   119   60  126 1    
   120   61  127 1    
   121   61  128 1    
   122   61  129 1    
   123   62   63 2    
   124   62   64 am   BACKBONE|DICT|INTERRES
   125   64   65 1    
   126   64  130 1    
   127   65   66 1    
   128   65   69 1    
   129   65  131 1    
   130   66   67 am   BACKBONE|DICT|INTERRES
   131   66   68 2    
   132   67  132 1    
   133   67  133 1    
   134   69   70 1    
   135   69  134 1    
   136   69  135 1    
   137   70   71 1    
   138   71  136 1    
   139   71  137 1    
@<TRIPOS>SUBSTRUCTURE
     1 UNK         1 GROUP             0       ****    0 ROOT    
