@<TRIPOS>MOLECULE
3R137
137   139    1
SMALL
USER_CHARGES


@<TRIPOS>ATOM
      1 CA         25.9999   -7.5561   -4.3191 C.3       0 UNK        -0.2020 
      2 C          26.5573   -6.7139   -3.1811 C.2       0 UNK         0.4855 
      3 O          26.9284   -7.2609   -2.1420 O.2       0 UNK        -0.5197 
      4 N          26.6106   -5.3920   -3.3726 N.am      1 UNK        -0.4892 
      5 CA         27.0498   -4.3999   -2.3861 C.3       1 UNK         0.0835 
      6 C6         28.4162   -3.7556   -2.7475 C.3       12 UNK        -0.0855 
      7 S7         29.7536   -4.9579   -3.0770 S.3       12 UNK        -0.2931 
      8 C8         30.5664   -4.2142   -4.5312 C.3       12 UNK         0.0378 
      9 C9         31.3912   -3.0006   -4.1301 C.ar      12 UNK        -0.0802 
     10 C10        32.7351   -3.1443   -3.7810 C.ar      12 UNK        -0.0944 
     11 C11        33.4880   -2.0379   -3.3754 C.ar      12 UNK        -0.0787 
     12 C12        32.8753   -0.7819   -3.2885 C.ar      12 UNK        -0.0862 
     13 C13        31.5243   -0.6270   -3.6225 C.ar      12 UNK        -0.0733 
     14 C14        30.8039   -1.7358   -4.0793 C.ar      12 UNK        -0.0832 
     15 C15        30.8470    0.7351   -3.4980 C.3       12 UNK         0.0240 
     16 S16        29.1537    0.6199   -2.8223 S.3       12 UNK        -0.2522 
     17 C17        28.3269    1.9820   -3.7055 C.3       12 UNK        -0.0967 
     18 CA         27.8906    1.5988   -5.1434 C.3       5 UNK         0.0660 
     19 N          27.0090    0.4266   -5.1971 N.am      5 UNK        -0.4015 
     20 C          26.6924   -0.2181   -6.3337 C.2       4 UNK         0.4946 
     21 O          27.1583    0.0794   -7.4333 O.2       4 UNK        -0.5353 
     22 CA         25.6340   -1.3363   -6.2636 C.3       4 UNK         0.0277 
     23 CB         26.2981   -2.7129   -6.1306 C.3       4 UNK        -0.1981 
     24 N          24.6535   -1.1475   -5.1914 N.am      4 UNK        -0.4209 
     25 C          23.8335   -0.0885   -5.1042 C.2       3 UNK         0.4942 
     26 O          23.7585    0.7789   -5.9750 O.2       3 UNK        -0.5208 
     27 CA         23.0019    0.0793   -3.8189 C.3       3 UNK         0.0250 
     28 CB         21.5490   -0.3573   -4.0630 C.3       3 UNK        -0.1990 
     29 N          23.5283   -0.6292   -2.6470 N.am      3 UNK        -0.4232 
     30 C          24.7493   -0.4804   -2.1108 C.2       2 UNK         0.4993 
     31 O          25.5999    0.2920   -2.5550 O.2       2 UNK        -0.5286 
     32 CA         25.1025   -1.3837   -0.9107 C.3       2 UNK         0.0209 
     33 CB         23.8677   -1.9872   -0.2026 C.3       2 UNK        -0.1931 
     34 N          26.0482   -2.4557   -1.2599 N.am      2 UNK        -0.4546 
     35 C          25.9472   -3.3262   -2.2770 C.2       1 UNK         0.5154 
     36 O          25.0418   -3.2949   -3.1185 O.2       1 UNK        -0.5181 
     37 C          27.2605    2.8136   -5.8531 C.2       5 UNK         0.5014 
     38 O          27.9613    3.5128   -6.5850 O.2       5 UNK        -0.5248 
     39 N          25.9486    3.0231   -5.6608 N.am      6 UNK        -0.4434 
     40 CA         25.1712    4.0737   -6.3269 C.3       6 UNK         0.0363 
     41 CB         23.8175    4.2483   -5.6197 C.3       6 UNK        -0.1936 
     42 C          24.9754    3.7978   -7.8281 C.2       6 UNK         0.5081 
     43 O          24.9587    4.7399   -8.6199 O.2       6 UNK        -0.5248 
     44 N          24.8761    2.5132   -8.1977 N.am      7 UNK        -0.4718 
     45 CA         24.8434    2.0355   -9.5846 C.3       7 UNK         0.0273 
     46 CB         24.2677    0.6100   -9.6059 C.3       7 UNK        -0.1935 
     47 C          26.2174    2.0711  -10.2880 C.2       7 UNK         0.5018 
     48 O          26.2738    1.8040  -11.4890 O.2       7 UNK        -0.5186 
     49 N          27.2875    2.3827   -9.5401 N.am      8 UNK        -0.4240 
     50 CA         28.6936    2.4476   -9.9545 C.3       8 UNK         0.0235 
     51 CB         28.9128    3.5229  -11.0405 C.3       8 UNK        -0.2000 
     52 C          29.2983    1.0797  -10.3293 C.2       8 UNK         0.4941 
     53 O          30.2676    1.0290  -11.0889 O.2       8 UNK        -0.5273 
     54 N          28.7660   -0.0038   -9.7498 N.am      9 UNK        -0.4262 
     55 CA         29.3339   -1.3502   -9.7975 C.3       9 UNK         0.0264 
     56 CB         28.1877   -2.3732   -9.8919 C.3       9 UNK        -0.1955 
     57 C          30.2012   -1.5253   -8.5411 C.2       9 UNK         0.5031 
     58 O          29.8210   -2.2425   -7.6137 O.2       9 UNK        -0.5390 
     59 N          31.3150   -0.7863   -8.5150 N.am      10 UNK        -0.4204 
     60 CA         32.1640   -0.5657   -7.3485 C.3       10 UNK         0.0237 
     61 CB         32.0684    0.9273   -6.9824 C.3       10 UNK        -0.1985 
     62 C          33.6205   -0.9458   -7.6354 C.2       10 UNK         0.4970 
     63 O          33.9874   -1.1762   -8.7903 O.2       10 UNK        -0.4914 
     64 N          34.4306   -0.9496   -6.5696 N.am      11 UNK        -0.4285 
     65 CA         35.8935   -1.1088   -6.6112 C.3       11 UNK         0.1007 
     66 C          36.6543    0.0207   -7.3693 C.2       11 UNK         0.5703 
     67 N          36.0753    1.1998   -7.5674 N.am      11 UNK        -0.7361 
     68 O          37.7926   -0.1811   -7.7858 O.2       11 UNK        -0.4986 
     69 C69        36.4829   -1.2778   -5.1859 C.3       12 UNK        -0.0947 
     70 S70        35.9657   -2.8237   -4.3704 S.3       12 UNK        -0.2240 
     71 C71        34.9463   -2.2269   -2.9812 C.3       12 UNK         0.0194 
     72 H72        25.1242   -8.1102   -3.9825 H         1 UNK         0.0906 
     73 H73        25.7074   -6.9462   -5.1737 H         1 UNK         0.0906 
     74 H74        26.7485   -8.2728   -4.6556 H         1 UNK         0.0906 
     75 H75        26.1930   -4.9900   -4.2007 H         1 UNK         0.3140 
     76 H76        27.1347   -4.8689   -1.4033 H         1 UNK         0.1085 
     77 H77        28.7560   -3.1013   -1.9425 H         1 UNK         0.0836 
     78 H78        28.3041   -3.1148   -3.6185 H         1 UNK         0.0836 
     79 H79        29.8226   -3.9440   -5.2830 H         1 UNK         0.0731 
     80 H80        31.2096   -4.9620   -4.9974 H         1 UNK         0.0731 
     81 H81        33.1968   -4.1219   -3.8170 H         1 UNK         0.1312 
     82 H82        33.4450    0.0711   -2.9451 H         1 UNK         0.1406 
     83 H83        29.7720   -1.6159   -4.3761 H         1 UNK         0.1631 
     84 H84        30.8184    1.2001   -4.4806 H         1 UNK         0.0717 
     85 H85        31.4290    1.3995   -2.8577 H         1 UNK         0.0717 
     86 H86        27.4619    2.2843   -3.1117 H         1 UNK         0.0934 
     87 H87        28.9978    2.8438   -3.7201 H         1 UNK         0.0934 
     88 H88        28.7892    1.3409   -5.7071 H         1 UNK         0.0739 
     89 H89        26.5692    0.1586   -4.3213 H         1 UNK         0.3093 
     90 H90        25.0862   -1.3235   -7.2067 H         1 UNK         0.0818 
     91 H91        26.8140   -2.8100   -5.1805 H         1 UNK         0.0819 
     92 H92        25.5652   -3.5165   -6.2022 H         1 UNK         0.0819 
     93 H93        27.0390   -2.8752   -6.9134 H         1 UNK         0.0819 
     94 H94        24.6598   -1.8266   -4.4352 H         1 UNK         0.3041 
     95 H95        23.0031    1.1444   -3.5784 H         1 UNK         0.0784 
     96 H96        21.1189    0.1741   -4.9135 H         1 UNK         0.0793 
     97 H97        21.4794   -1.4248   -4.2767 H         1 UNK         0.0793 
     98 H98        20.9187   -0.1443   -3.1993 H         1 UNK         0.0793 
     99 H99        22.9217   -1.3238   -2.2358 H         1 UNK         0.3024 
    100 H100       25.6102   -0.7356   -0.1940 H         1 UNK         0.1171 
    101 H101       24.1586   -2.4964    0.7164 H         1 UNK         0.0786 
    102 H102       23.1531   -1.2123    0.0791 H         1 UNK         0.0786 
    103 H103       23.3462   -2.7152   -0.8253 H         1 UNK         0.0786 
    104 H104       26.8509   -2.5299   -0.6501 H         1 UNK         0.2977 
    105 H105       25.4309    2.3736   -5.0854 H         1 UNK         0.3127 
    106 H106       25.7238    5.0114   -6.2343 H         1 UNK         0.0770 
    107 H107       23.2032    3.3501   -5.6860 H         1 UNK         0.0814 
    108 H108       23.2483    5.0627   -6.0696 H         1 UNK         0.0814 
    109 H109       23.9480    4.4899   -4.5648 H         1 UNK         0.0814 
    110 H110       24.8211    1.8086   -7.4696 H         1 UNK         0.2983 
    111 H111       24.1722    2.6835  -10.1524 H         1 UNK         0.0947 
    112 H112       24.0827    0.2812  -10.6293 H         1 UNK         0.0806 
    113 H113       23.3207    0.5500   -9.0690 H         1 UNK         0.0806 
    114 H114       24.9571   -0.1054   -9.1590 H         1 UNK         0.0806 
    115 H115       27.1247    2.5568   -8.5565 H         1 UNK         0.3000 
    116 H116       29.2406    2.7709   -9.0674 H         1 UNK         0.0850 
    117 H117       29.9761    3.6870  -11.2192 H         1 UNK         0.0810 
    118 H118       28.4848    4.4802  -10.7428 H         1 UNK         0.0810 
    119 H119       28.4663    3.2356  -11.9927 H         1 UNK         0.0810 
    120 H120       28.0408    0.1326   -9.0457 H         1 UNK         0.3040 
    121 H121       29.9723   -1.4745  -10.6749 H         1 UNK         0.0766 
    122 H122       28.5675   -3.3944   -9.8430 H         1 UNK         0.0812 
    123 H123       27.6473   -2.2702  -10.8329 H         1 UNK         0.0812 
    124 H124       27.4683   -2.2483   -9.0835 H         1 UNK         0.0812 
    125 H125       31.5793   -0.2833   -9.3524 H         1 UNK         0.3205 
    126 H126       31.8208   -1.1722   -6.5111 H         1 UNK         0.0754 
    127 H127       32.4688    1.5623   -7.7742 H         1 UNK         0.0769 
    128 H128       32.6235    1.1536   -6.0717 H         1 UNK         0.0769 
    129 H129       31.0333    1.2264   -6.8184 H         1 UNK         0.0769 
    130 H130       34.0364   -0.7855   -5.6552 H         1 UNK         0.2981 
    131 H131       36.0947   -2.0263   -7.1675 H         1 UNK         0.0541 
    132 H132       35.1465    1.3807   -7.2253 H         1 UNK         0.3459 
    133 H133       36.5804    1.9181   -8.0618 H         1 UNK         0.3459 
    134 H134       36.2263   -0.4193   -4.5630 H         1 UNK         0.0612 
    135 H135       37.5738   -1.3039   -5.2230 H         1 UNK         0.0612 
    136 H136       35.3717   -1.3103   -2.5703 H         1 UNK         0.0624 
    137 H137       34.9932   -2.9659   -2.1802 H         1 UNK         0.0624 
@<TRIPOS>BOND
     1    1    2 1    
     2    1   72 1    
     3    1   73 1    
     4    1   74 1    
     5    2    3 2    
     6    2    4 am   BACKBONE|DICT|INTERRES
     7    4    5 1    
     8    4   75 1    
     9    5    6 1    
    10    5   35 1    
    11    5   76 1    
    12    6    7 1    
    13    6   77 1    
    14    6   78 1    
    15    7    8 1    
    16    8    9 1    
    17    8   79 1    
    18    8   80 1    
    19    9   10 ar   
    20    9   14 ar   
    21   10   11 ar   
    22   10   81 1    
    23   11   12 ar   
    24   11   71 1    
    25   12   13 ar   
    26   12   82 1    
    27   13   14 ar   
    28   13   15 1    
    29   14   83 1    
    30   15   16 1    
    31   15   84 1    
    32   15   85 1    
    33   16   17 1    
    34   17   18 1    
    35   17   86 1    
    36   17   87 1    
    37   18   19 1    
    38   18   37 1    
    39   18   88 1    
    40   19   20 am   BACKBONE|DICT|INTERRES
    41   19   89 1    
    42   20   21 2    
    43   20   22 1    
    44   22   23 1    
    45   22   24 1    
    46   22   90 1    
    47   23   91 1    
    48   23   92 1    
    49   23   93 1    
    50   24   25 am   BACKBONE|DICT|INTERRES
    51   24   94 1    
    52   25   26 2    
    53   25   27 1    
    54   27   28 1    
    55   27   29 1    
    56   27   95 1    
    57   28   96 1    
    58   28   97 1    
    59   28   98 1    
    60   29   30 am   BACKBONE|DICT|INTERRES
    61   29   99 1    
    62   30   31 2    
    63   30   32 1    
    64   32   33 1    
    65   32   34 1    
    66   32  100 1    
    67   33  101 1    
    68   33  102 1    
    69   33  103 1    
    70   34   35 am   BACKBONE|DICT|INTERRES
    71   34  104 1    
    72   35   36 2    
    73   37   38 2    
    74   37   39 am   BACKBONE|DICT|INTERRES
    75   39   40 1    
    76   39  105 1    
    77   40   41 1    
    78   40   42 1    
    79   40  106 1    
    80   41  107 1    
    81   41  108 1    
    82   41  109 1    
    83   42   43 2    
    84   42   44 am   BACKBONE|DICT|INTERRES
    85   44   45 1    
    86   44  110 1    
    87   45   46 1    
    88   45   47 1    
    89   45  111 1    
    90   46  112 1    
    91   46  113 1    
    92   46  114 1    
    93   47   48 2    
    94   47   49 am   BACKBONE|DICT|INTERRES
    95   49   50 1    
    96   49  115 1    
    97   50   51 1    
    98   50   52 1    
    99   50  116 1    
   100   51  117 1    
   101   51  118 1    
   102   51  119 1    
   103   52   53 2    
   104   52   54 am   BACKBONE|DICT|INTERRES
   105   54   55 1    
   106   54  120 1    
   107   55   56 1    
   108   55   57 1    
   109   55  121 1    
   110   56  122 1    
   111   56  123 1    
   112   56  124 1    
   113   57   58 2    
   114   57   59 am   BACKBONE|DICT|INTERRES
   115   59   60 1    
   116   59  125 1    
   117   60   61 1    
   118   60   62 1    
   119   60  126 1    
   120   61  127 1    
   121   61  128 1    
   122   61  129 1    
   123   62   63 2    
   124   62   64 am   BACKBONE|DICT|INTERRES
   125   64   65 1    
   126   64  130 1    
   127   65   66 1    
   128   65   69 1    
   129   65  131 1    
   130   66   67 am   BACKBONE|DICT|INTERRES
   131   66   68 2    
   132   67  132 1    
   133   67  133 1    
   134   69   70 1    
   135   69  134 1    
   136   69  135 1    
   137   70   71 1    
   138   71  136 1    
   139   71  137 1    
@<TRIPOS>SUBSTRUCTURE
     1 UNK         1 GROUP             0       ****    0 ROOT    
