@<TRIPOS>MOLECULE
3R137
137   139    1
SMALL
USER_CHARGES


@<TRIPOS>ATOM
      1 CA         23.7805   -5.4740    0.4879 C.3       0 UNK        -0.2020 
      2 C          25.0624   -4.6548    0.4658 C.2       0 UNK         0.4855 
      3 O          25.0857   -3.5399    0.9882 O.2       0 UNK        -0.5197 
      4 N          26.1320   -5.2008   -0.1261 N.am      1 UNK        -0.4892 
      5 CA         27.4151   -4.5196   -0.3122 C.3       1 UNK         0.0835 
      6 C6         28.5470   -5.5338   -0.6122 C.3       12 UNK        -0.0855 
      7 S7         30.2095   -4.8234   -0.3639 S.3       12 UNK        -0.2931 
      8 C8         31.0259   -5.1909   -1.9530 C.3       12 UNK         0.0378 
      9 C9         30.6532   -4.2084   -3.0573 C.ar      12 UNK        -0.0802 
     10 C10        31.1013   -2.8836   -2.9900 C.ar      12 UNK        -0.0944 
     11 C11        30.8224   -1.9850   -4.0238 C.ar      12 UNK        -0.0787 
     12 C12        30.0875   -2.4239   -5.1260 C.ar      12 UNK        -0.0862 
     13 C13        29.6432   -3.7447   -5.2191 C.ar      12 UNK        -0.0733 
     14 C14        29.9209   -4.6332   -4.1743 C.ar      12 UNK        -0.0832 
     15 C15        28.9283   -4.2092   -6.4852 C.3       12 UNK         0.0240 
     16 S16        27.1249   -4.4133   -6.3156 S.3       12 UNK        -0.2522 
     17 C17        26.5711   -2.8574   -5.5440 C.3       12 UNK        -0.0967 
     18 CA         26.1744   -1.7252   -6.5268 C.3       5 UNK         0.0660 
     19 N          25.0441   -0.9517   -6.0026 N.am      5 UNK        -0.4015 
     20 C          24.3366   -0.0508   -6.7011 C.2       4 UNK         0.4946 
     21 O          24.5350    0.1932   -7.8919 O.2       4 UNK        -0.5353 
     22 CA         23.2491    0.7402   -5.9454 C.3       4 UNK         0.0277 
     23 CB         21.8684    0.1051   -6.1754 C.3       4 UNK        -0.1981 
     24 N          23.4892    0.8698   -4.5024 N.am      4 UNK        -0.4209 
     25 C          24.5501    1.4797   -3.9549 C.2       3 UNK         0.4942 
     26 O          25.4321    2.0227   -4.6193 O.2       3 UNK        -0.5208 
     27 CA         24.7090    1.4243   -2.4218 C.3       3 UNK         0.0250 
     28 CB         23.4847    0.8486   -1.6724 C.3       3 UNK        -0.1990 
     29 N          25.9343    0.7001   -2.0519 N.am      3 UNK        -0.4232 
     30 C          26.2530   -0.5557   -2.4051 C.2       2 UNK         0.4993 
     31 O          25.4936   -1.2758   -3.0542 O.2       2 UNK        -0.5286 
     32 CA         27.6616   -1.0707   -2.0325 C.3       2 UNK         0.0209 
     33 CB         28.5899    0.0050   -1.4306 C.3       2 UNK        -0.1931 
     34 N          27.6234   -2.2107   -1.1153 N.am      2 UNK        -0.4546 
     35 C          27.2877   -3.4691   -1.4316 C.2       1 UNK         0.5154 
     36 O          26.9195   -3.8400   -2.5457 O.2       1 UNK        -0.5181 
     37 C          27.3845   -0.8233   -6.8552 C.2       5 UNK         0.5014 
     38 O          28.1417   -1.1382   -7.7755 O.2       5 UNK        -0.5248 
     39 N          27.5493    0.2919   -6.1213 N.am      6 UNK        -0.4434 
     40 CA         28.6614    1.2342   -6.2837 C.3       6 UNK         0.0363 
     41 CB         28.6125    2.3085   -5.1870 C.3       6 UNK        -0.1936 
     42 C          28.6987    1.9000   -7.6636 C.2       6 UNK         0.5081 
     43 O          29.7893    2.1467   -8.1750 O.2       6 UNK        -0.5248 
     44 N          27.5195    2.1446   -8.2497 N.am      7 UNK        -0.4718 
     45 CA         27.3653    2.6825   -9.6015 C.3       7 UNK         0.0273 
     46 CB         25.9236    3.1834   -9.7827 C.3       7 UNK        -0.1935 
     47 C          27.7229    1.6619  -10.6957 C.2       7 UNK         0.5018 
     48 O          28.1668    2.0681  -11.7697 O.2       7 UNK        -0.5186 
     49 N          27.5278    0.3664  -10.4103 N.am      8 UNK        -0.4240 
     50 CA         27.8536   -0.7356  -11.3153 C.3       8 UNK         0.0235 
     51 CB         27.0166   -1.9747  -10.9535 C.3       8 UNK        -0.2000 
     52 C          29.3549   -1.0566  -11.2957 C.2       8 UNK         0.4941 
     53 O          29.9577   -1.1888  -12.3613 O.2       8 UNK        -0.5273 
     54 N          29.9324   -1.1684  -10.0909 N.am      9 UNK        -0.4262 
     55 CA         31.3544   -1.4693   -9.8907 C.3       9 UNK         0.0264 
     56 CB         31.5511   -2.0715   -8.4937 C.3       9 UNK        -0.1955 
     57 C          32.2845   -0.2578  -10.0768 C.2       9 UNK         0.5031 
     58 O          33.4849   -0.4623  -10.2631 O.2       9 UNK        -0.5390 
     59 N          31.7307    0.9619  -10.0029 N.am      10 UNK        -0.4204 
     60 CA         32.4215    2.2563  -10.0023 C.3       10 UNK         0.0237 
     61 CB         33.1748    2.5021  -11.3281 C.3       10 UNK        -0.1985 
     62 C          33.3015    2.4244   -8.7486 C.2       10 UNK         0.4970 
     63 O          34.4912    2.7267   -8.8621 O.2       10 UNK        -0.4914 
     64 N          32.6921    2.2187   -7.5718 N.am      11 UNK        -0.4285 
     65 CA         33.3427    2.3856   -6.2579 C.3       11 UNK         0.1007 
     66 C          33.6344    3.8662   -5.8718 C.2       11 UNK         0.5703 
     67 N          33.0331    4.8566   -6.5215 N.am      11 UNK        -0.7361 
     68 O          34.4271    4.1193   -4.9678 O.2       11 UNK        -0.4986 
     69 C69        32.5722    1.6734   -5.1128 C.3       12 UNK        -0.0947 
     70 S70        32.4041   -0.1232   -5.3530 S.3       12 UNK        -0.2240 
     71 C71        31.3040   -0.5410   -3.9594 C.3       12 UNK         0.0194 
     72 H72        23.9058   -6.4425    0.0040 H         1 UNK         0.0906 
     73 H73        23.4636   -5.6474    1.5160 H         1 UNK         0.0906 
     74 H74        22.9845   -4.9377   -0.0283 H         1 UNK         0.0906 
     75 H75        26.0455   -6.1021   -0.5743 H         1 UNK         0.3140 
     76 H76        27.6555   -4.0128    0.6256 H         1 UNK         0.1085 
     77 H77        28.4671   -6.3869    0.0637 H         1 UNK         0.0836 
     78 H78        28.4514   -5.9442   -1.6197 H         1 UNK         0.0836 
     79 H79        32.1056   -5.1491   -1.8023 H         1 UNK         0.0731 
     80 H80        30.8059   -6.2180   -2.2486 H         1 UNK         0.0731 
     81 H81        31.6748   -2.5582   -2.1328 H         1 UNK         0.1312 
     82 H82        29.8846   -1.7335   -5.9286 H         1 UNK         0.1406 
     83 H83        29.5851   -5.6587   -4.2451 H         1 UNK         0.1631 
     84 H84        29.3553   -5.1597   -6.8075 H         1 UNK         0.0717 
     85 H85        29.1097   -3.5132   -7.3026 H         1 UNK         0.0717 
     86 H86        27.2962   -2.5202   -4.8055 H         1 UNK         0.0934 
     87 H87        25.7015   -3.1480   -4.9519 H         1 UNK         0.0934 
     88 H88        25.8406   -2.1752   -7.4642 H         1 UNK         0.0739 
     89 H89        24.8514   -1.0688   -5.0123 H         1 UNK         0.3093 
     90 H90        23.2361    1.7477   -6.3667 H         1 UNK         0.0818 
     91 H91        21.0748    0.7070   -5.7322 H         1 UNK         0.0819 
     92 H92        21.6505    0.0209   -7.2412 H         1 UNK         0.0819 
     93 H93        21.8086   -0.8978   -5.7506 H         1 UNK         0.0819 
     94 H94        22.8264    0.4211   -3.8866 H         1 UNK         0.3041 
     95 H95        24.8429    2.4564   -2.0941 H         1 UNK         0.0784 
     96 H96        22.5813    1.4188   -1.8934 H         1 UNK         0.0793 
     97 H97        23.2929   -0.1950   -1.9244 H         1 UNK         0.0793 
     98 H98        23.6333    0.8987   -0.5937 H         1 UNK         0.0793 
     99 H99        26.6240    1.2399   -1.5484 H         1 UNK         0.3024 
    100 H100       28.1193   -1.4103   -2.9630 H         1 UNK         0.1171 
    101 H101       28.2329    0.3625   -0.4638 H         1 UNK         0.0786 
    102 H102       28.6907    0.8663   -2.0904 H         1 UNK         0.0786 
    103 H103       29.5947   -0.3914   -1.2806 H         1 UNK         0.0786 
    104 H104       27.8832   -2.0158   -0.1595 H         1 UNK         0.2977 
    105 H105       26.8412    0.5465   -5.4429 H         1 UNK         0.3127 
    106 H106       29.5881    0.6701   -6.1749 H         1 UNK         0.0770 
    107 H107       27.7262    2.9363   -5.2764 H         1 UNK         0.0814 
    108 H108       29.4720    2.9757   -5.2526 H         1 UNK         0.0814 
    109 H109       28.6140    1.8688   -4.1916 H         1 UNK         0.0814 
    110 H110       26.6736    1.8963   -7.7551 H         1 UNK         0.2983 
    111 H111       28.0420    3.5332   -9.7117 H         1 UNK         0.0947 
    112 H112       25.7809    3.6113  -10.7761 H         1 UNK         0.0806 
    113 H113       25.6794    3.9606   -9.0583 H         1 UNK         0.0806 
    114 H114       25.1981    2.3767   -9.6674 H         1 UNK         0.0806 
    115 H115       27.1987    0.1182   -9.4870 H         1 UNK         0.3000 
    116 H116       27.5880   -0.4400  -12.3330 H         1 UNK         0.0850 
    117 H117       27.2137   -2.7915  -11.6491 H         1 UNK         0.0810 
    118 H118       25.9491   -1.7590  -11.0019 H         1 UNK         0.0810 
    119 H119       27.2372   -2.3433   -9.9515 H         1 UNK         0.0810 
    120 H120       29.3503   -1.0870   -9.2594 H         1 UNK         0.3040 
    121 H121       31.6580   -2.2204  -10.6233 H         1 UNK         0.0766 
    122 H122       32.6061   -2.2530   -8.2830 H         1 UNK         0.0812 
    123 H123       31.1770   -1.4000   -7.7233 H         1 UNK         0.0812 
    124 H124       31.0391   -3.0275   -8.4003 H         1 UNK         0.0812 
    125 H125       30.7451    1.0132   -9.7758 H         1 UNK         0.3205 
    126 H126       31.6427    3.0171   -9.9325 H         1 UNK         0.0754 
    127 H127       33.5742    3.5163  -11.3642 H         1 UNK         0.0769 
    128 H128       32.5133    2.3834  -12.1863 H         1 UNK         0.0769 
    129 H129       34.0159    1.8203  -11.4560 H         1 UNK         0.0769 
    130 H130       31.6985    2.0149   -7.5730 H         1 UNK         0.2981 
    131 H131       34.3207    1.9055   -6.3277 H         1 UNK         0.0541 
    132 H132       32.3774    4.6611   -7.2603 H         1 UNK         0.3459 
    133 H133       33.2352    5.8096   -6.2636 H         1 UNK         0.3459 
    134 H134       31.5795    2.1074   -5.0005 H         1 UNK         0.0612 
    135 H135       33.0808    1.8226   -4.1583 H         1 UNK         0.0612 
    136 H136       31.8318   -0.3492   -3.0241 H         1 UNK         0.0624 
    137 H137       30.4364    0.1184   -3.9672 H         1 UNK         0.0624 
@<TRIPOS>BOND
     1    1    2 1    
     2    1   72 1    
     3    1   73 1    
     4    1   74 1    
     5    2    3 2    
     6    2    4 am   BACKBONE|DICT|INTERRES
     7    4    5 1    
     8    4   75 1    
     9    5    6 1    
    10    5   35 1    
    11    5   76 1    
    12    6    7 1    
    13    6   77 1    
    14    6   78 1    
    15    7    8 1    
    16    8    9 1    
    17    8   79 1    
    18    8   80 1    
    19    9   10 ar   
    20    9   14 ar   
    21   10   11 ar   
    22   10   81 1    
    23   11   12 ar   
    24   11   71 1    
    25   12   13 ar   
    26   12   82 1    
    27   13   14 ar   
    28   13   15 1    
    29   14   83 1    
    30   15   16 1    
    31   15   84 1    
    32   15   85 1    
    33   16   17 1    
    34   17   18 1    
    35   17   86 1    
    36   17   87 1    
    37   18   19 1    
    38   18   37 1    
    39   18   88 1    
    40   19   20 am   BACKBONE|DICT|INTERRES
    41   19   89 1    
    42   20   21 2    
    43   20   22 1    
    44   22   23 1    
    45   22   24 1    
    46   22   90 1    
    47   23   91 1    
    48   23   92 1    
    49   23   93 1    
    50   24   25 am   BACKBONE|DICT|INTERRES
    51   24   94 1    
    52   25   26 2    
    53   25   27 1    
    54   27   28 1    
    55   27   29 1    
    56   27   95 1    
    57   28   96 1    
    58   28   97 1    
    59   28   98 1    
    60   29   30 am   BACKBONE|DICT|INTERRES
    61   29   99 1    
    62   30   31 2    
    63   30   32 1    
    64   32   33 1    
    65   32   34 1    
    66   32  100 1    
    67   33  101 1    
    68   33  102 1    
    69   33  103 1    
    70   34   35 am   BACKBONE|DICT|INTERRES
    71   34  104 1    
    72   35   36 2    
    73   37   38 2    
    74   37   39 am   BACKBONE|DICT|INTERRES
    75   39   40 1    
    76   39  105 1    
    77   40   41 1    
    78   40   42 1    
    79   40  106 1    
    80   41  107 1    
    81   41  108 1    
    82   41  109 1    
    83   42   43 2    
    84   42   44 am   BACKBONE|DICT|INTERRES
    85   44   45 1    
    86   44  110 1    
    87   45   46 1    
    88   45   47 1    
    89   45  111 1    
    90   46  112 1    
    91   46  113 1    
    92   46  114 1    
    93   47   48 2    
    94   47   49 am   BACKBONE|DICT|INTERRES
    95   49   50 1    
    96   49  115 1    
    97   50   51 1    
    98   50   52 1    
    99   50  116 1    
   100   51  117 1    
   101   51  118 1    
   102   51  119 1    
   103   52   53 2    
   104   52   54 am   BACKBONE|DICT|INTERRES
   105   54   55 1    
   106   54  120 1    
   107   55   56 1    
   108   55   57 1    
   109   55  121 1    
   110   56  122 1    
   111   56  123 1    
   112   56  124 1    
   113   57   58 2    
   114   57   59 am   BACKBONE|DICT|INTERRES
   115   59   60 1    
   116   59  125 1    
   117   60   61 1    
   118   60   62 1    
   119   60  126 1    
   120   61  127 1    
   121   61  128 1    
   122   61  129 1    
   123   62   63 2    
   124   62   64 am   BACKBONE|DICT|INTERRES
   125   64   65 1    
   126   64  130 1    
   127   65   66 1    
   128   65   69 1    
   129   65  131 1    
   130   66   67 am   BACKBONE|DICT|INTERRES
   131   66   68 2    
   132   67  132 1    
   133   67  133 1    
   134   69   70 1    
   135   69  134 1    
   136   69  135 1    
   137   70   71 1    
   138   71  136 1    
   139   71  137 1    
@<TRIPOS>SUBSTRUCTURE
     1 UNK         1 GROUP             0       ****    0 ROOT    
