@<TRIPOS>MOLECULE
3R137
137   139    1
SMALL
USER_CHARGES


@<TRIPOS>ATOM
      1 CA         28.6753    2.8863    0.7793 C.3       0 UNK        -0.2020 
      2 C          28.4135    1.7372   -0.1830 C.2       0 UNK         0.4855 
      3 O          28.9549    1.7303   -1.2880 O.2       0 UNK        -0.5197 
      4 N          27.5875    0.7701    0.2276 N.am      1 UNK        -0.4892 
      5 CA         27.1688   -0.3843   -0.5664 C.3       1 UNK         0.0835 
      6 C6         28.2758   -1.4695   -0.7010 C.3       12 UNK        -0.0855 
      7 S7         28.0507   -2.4998   -2.1917 S.3       12 UNK        -0.2931 
      8 C8         29.6481   -3.3754   -2.2523 C.3       12 UNK         0.0378 
      9 C9         30.0445   -3.7531   -3.6748 C.ar      12 UNK        -0.0802 
     10 C10        31.2818   -3.3492   -4.1895 C.ar      12 UNK        -0.0944 
     11 C11        31.6709   -3.7222   -5.4792 C.ar      12 UNK        -0.0787 
     12 C12        30.8024   -4.4853   -6.2664 C.ar      12 UNK        -0.0862 
     13 C13        29.5632   -4.8959   -5.7655 C.ar      12 UNK        -0.0733 
     14 C14        29.1947   -4.5336   -4.4659 C.ar      12 UNK        -0.0832 
     15 C15        28.6474   -5.7731   -6.6100 C.3       12 UNK         0.0240 
     16 S16        27.8071   -4.8488   -7.9364 S.3       12 UNK        -0.2522 
     17 C17        26.6362   -3.8115   -6.9948 C.3       12 UNK        -0.0967 
     18 CA         26.5178   -2.3671   -7.5422 C.3       5 UNK         0.0660 
     19 N          25.3711   -1.6748   -6.9455 N.am      5 UNK        -0.4015 
     20 C          24.9891   -0.4090   -7.1698 C.2       4 UNK         0.4946 
     21 O          25.5616    0.3435   -7.9576 O.2       4 UNK        -0.5353 
     22 CA         23.7727    0.1294   -6.3875 C.3       4 UNK         0.0277 
     23 CB         22.6620    0.5697   -7.3566 C.3       4 UNK        -0.1981 
     24 N          23.2028   -0.7959   -5.3984 N.am      4 UNK        -0.4209 
     25 C          23.8073   -1.2014   -4.2742 C.2       3 UNK         0.4942 
     26 O          24.9497   -0.8633   -3.9494 O.2       3 UNK        -0.5208 
     27 CA         23.0215   -2.1866   -3.3991 C.3       3 UNK         0.0250 
     28 CB         22.8268   -3.5419   -4.1070 C.3       3 UNK        -0.1990 
     29 N          23.7706   -2.3847   -2.1668 N.am      3 UNK        -0.4232 
     30 C          23.2825   -2.7386   -0.9732 C.2       2 UNK         0.4993 
     31 O          22.0937   -2.9826   -0.7637 O.2       2 UNK        -0.5286 
     32 CA         24.2931   -2.8467    0.1842 C.3       2 UNK         0.0209 
     33 CB         24.5537   -4.3214    0.5343 C.3       2 UNK        -0.1931 
     34 N          25.5714   -2.2041   -0.1366 N.am      2 UNK        -0.4546 
     35 C          25.8277   -0.8972   -0.0032 C.2       1 UNK         0.5154 
     36 O          25.0463   -0.1045    0.5298 O.2       1 UNK        -0.5181 
     37 C          27.8354   -1.5753   -7.3991 C.2       5 UNK         0.5014 
     38 O          28.5323   -1.3900   -8.3974 O.2       5 UNK        -0.5248 
     39 N          28.1179   -1.0667   -6.1891 N.am      6 UNK        -0.4434 
     40 CA         29.2988   -0.2444   -5.9116 C.3       6 UNK         0.0363 
     41 CB         29.4223    0.0264   -4.4053 C.3       6 UNK        -0.1936 
     42 C          29.3225    1.0805   -6.6874 C.2       6 UNK         0.5081 
     43 O          30.3935    1.4992   -7.1214 O.2       6 UNK        -0.5248 
     44 N          28.1531    1.7089   -6.8660 N.am      7 UNK        -0.4718 
     45 CA         28.0010    2.9376   -7.6463 C.3       7 UNK         0.0273 
     46 CB         26.6553    3.6047   -7.3173 C.3       7 UNK        -0.1935 
     47 C          28.1357    2.6735   -9.1534 C.2       7 UNK         0.5018 
     48 O          28.8227    3.4309   -9.8385 O.2       7 UNK        -0.5186 
     49 N          27.5039    1.5922   -9.6316 N.am      8 UNK        -0.4240 
     50 CA         27.5355    1.1461  -11.0257 C.3       8 UNK         0.0235 
     51 CB         26.5269    0.0022  -11.2208 C.3       8 UNK        -0.2000 
     52 C          28.9383    0.7235  -11.4920 C.2       8 UNK         0.4941 
     53 O          29.3589    1.1239  -12.5781 O.2       8 UNK        -0.5273 
     54 N          29.6400   -0.0619  -10.6639 N.am      9 UNK        -0.4262 
     55 CA         31.0016   -0.5346  -10.9289 C.3       9 UNK         0.0264 
     56 CB         31.2220   -1.8560  -10.1760 C.3       9 UNK        -0.1955 
     57 C          32.0953    0.4922  -10.5743 C.2       9 UNK         0.5031 
     58 O          33.2484    0.2749  -10.9501 O.2       9 UNK        -0.5390 
     59 N          31.7286    1.5752   -9.8703 N.am      10 UNK        -0.4204 
     60 CA         32.5922    2.6483   -9.3576 C.3       10 UNK         0.0237 
     61 CB         33.2027    3.4700  -10.5132 C.3       10 UNK        -0.1985 
     62 C          33.6419    2.1263   -8.3553 C.2       10 UNK         0.4970 
     63 O          34.8288    2.4395   -8.4715 O.2       10 UNK        -0.4914 
     64 N          33.1731    1.3208   -7.3978 N.am      11 UNK        -0.4285 
     65 CA         33.9683    0.7170   -6.3220 C.3       11 UNK         0.1007 
     66 C          34.3287    1.7427   -5.2143 C.2       11 UNK         0.5703 
     67 N          35.4365    1.5321   -4.5160 N.am      11 UNK        -0.7361 
     68 O          33.6051    2.7036   -4.9572 O.2       11 UNK        -0.4986 
     69 C69        33.2557   -0.5261   -5.7268 C.3       12 UNK        -0.0947 
     70 S70        33.0135   -1.8206   -6.9890 S.3       12 UNK        -0.2240 
     71 C71        33.0484   -3.3494   -6.0080 C.3       12 UNK         0.0194 
     72 H72        28.3605    3.8289    0.3322 H         1 UNK         0.0906 
     73 H73        28.1399    2.7615    1.7203 H         1 UNK         0.0906 
     74 H74        29.7400    2.9536    1.0016 H         1 UNK         0.0906 
     75 H75        27.1083    0.8540    1.1158 H         1 UNK         0.3140 
     76 H76        26.9352   -0.0085   -1.5660 H         1 UNK         0.1085 
     77 H77        29.2498   -0.9865   -0.7921 H         1 UNK         0.0836 
     78 H78        28.3408   -2.0973    0.1899 H         1 UNK         0.0836 
     79 H79        29.5855   -4.2774   -1.6422 H         1 UNK         0.0731 
     80 H80        30.4226   -2.7526   -1.8023 H         1 UNK         0.0731 
     81 H81        31.9537   -2.7595   -3.5810 H         1 UNK         0.1312 
     82 H82        31.0978   -4.7750   -7.2657 H         1 UNK         0.1406 
     83 H83        28.2456   -4.8600   -4.0629 H         1 UNK         0.1631 
     84 H84        27.8997   -6.2676   -5.9878 H         1 UNK         0.0717 
     85 H85        29.2374   -6.5712   -7.0629 H         1 UNK         0.0717 
     86 H86        25.6655   -4.3077   -7.0457 H         1 UNK         0.0934 
     87 H87        26.9053   -3.7972   -5.9380 H         1 UNK         0.0934 
     88 H88        26.3031   -2.4317   -8.6109 H         1 UNK         0.0739 
     89 H89        24.8358   -2.2008   -6.2727 H         1 UNK         0.3093 
     90 H90        24.1203    1.0135   -5.8489 H         1 UNK         0.0818 
     91 H91        21.8333    1.0388   -6.8259 H         1 UNK         0.0819 
     92 H92        23.0347    1.3008   -8.0758 H         1 UNK         0.0819 
     93 H93        22.2656   -0.2722   -7.9254 H         1 UNK         0.0819 
     94 H94        22.2703   -1.1338   -5.5919 H         1 UNK         0.3041 
     95 H95        22.0513   -1.7417   -3.1676 H         1 UNK         0.0784 
     96 H96        22.2505   -3.4350   -5.0265 H         1 UNK         0.0793 
     97 H97        23.7813   -4.0015   -4.3673 H         1 UNK         0.0793 
     98 H98        22.2844   -4.2436   -3.4728 H         1 UNK         0.0793 
     99 H99        24.7480   -2.1316   -2.2447 H         1 UNK         0.3024 
    100 H100       23.8488   -2.3572    1.0541 H         1 UNK         0.1171 
    101 H101       25.2315   -4.4134    1.3832 H         1 UNK         0.0786 
    102 H102       23.6265   -4.8282    0.8055 H         1 UNK         0.0786 
    103 H103       24.9895   -4.8656   -0.3047 H         1 UNK         0.0786 
    104 H104       26.2729   -2.7778   -0.5888 H         1 UNK         0.2977 
    105 H105       27.4874   -1.2432   -5.4193 H         1 UNK         0.3127 
    106 H106       30.1721   -0.8183   -6.2277 H         1 UNK         0.0770 
    107 H107       28.4968    0.4158   -3.9795 H         1 UNK         0.0814 
    108 H108       30.2073    0.7546   -4.1952 H         1 UNK         0.0814 
    109 H109       29.6889   -0.8800   -3.8680 H         1 UNK         0.0814 
    110 H110       27.3075    1.2670   -6.5343 H         1 UNK         0.2983 
    111 H111       28.7982    3.6269   -7.3581 H         1 UNK         0.0947 
    112 H112       26.5429    4.5409   -7.8657 H         1 UNK         0.0806 
    113 H113       26.5794    3.8409   -6.2559 H         1 UNK         0.0806 
    114 H114       25.8082    2.9711   -7.5813 H         1 UNK         0.0806 
    115 H115       26.9266    1.0497   -8.9907 H         1 UNK         0.3000 
    116 H116       27.2203    1.9871  -11.6470 H         1 UNK         0.0850 
    117 H117       26.5110   -0.3329  -12.2587 H         1 UNK         0.0810 
    118 H118       25.5154    0.3186  -10.9651 H         1 UNK         0.0810 
    119 H119       26.7714   -0.8612  -10.6011 H         1 UNK         0.0810 
    120 H120       29.2024   -0.3970   -9.8053 H         1 UNK         0.3040 
    121 H121       31.0984   -0.7430  -11.9966 H         1 UNK         0.0766 
    122 H122       31.0749   -1.7309   -9.1038 H         1 UNK         0.0812 
    123 H123       32.2329   -2.2369  -10.3268 H         1 UNK         0.0812 
    124 H124       30.5290   -2.6259  -10.5155 H         1 UNK         0.0812 
    125 H125       30.7596    1.6346   -9.5869 H         1 UNK         0.3205 
    126 H126       31.9393    3.3154   -8.7923 H         1 UNK         0.0754 
    127 H127       33.7465    4.3348  -10.1312 H         1 UNK         0.0769 
    128 H128       32.4286    3.8443  -11.1833 H         1 UNK         0.0769 
    129 H129       33.9039    2.8817  -11.1057 H         1 UNK         0.0769 
    130 H130       32.1647    1.2000   -7.3295 H         1 UNK         0.2981 
    131 H131       34.9082    0.3808   -6.7649 H         1 UNK         0.0541 
    132 H132       36.0345    0.7440   -4.7100 H         1 UNK         0.3459 
    133 H133       35.6833    2.1792   -3.7835 H         1 UNK         0.3459 
    134 H134       32.2884   -0.2556   -5.3029 H         1 UNK         0.0612 
    135 H135       33.8450   -0.9426   -4.9083 H         1 UNK         0.0612 
    136 H136       33.4204   -4.1543   -6.6436 H         1 UNK         0.0624 
    137 H137       33.7661   -3.2598   -5.1914 H         1 UNK         0.0624 
@<TRIPOS>BOND
     1    1    2 1    
     2    1   72 1    
     3    1   73 1    
     4    1   74 1    
     5    2    3 2    
     6    2    4 am   BACKBONE|DICT|INTERRES
     7    4    5 1    
     8    4   75 1    
     9    5    6 1    
    10    5   35 1    
    11    5   76 1    
    12    6    7 1    
    13    6   77 1    
    14    6   78 1    
    15    7    8 1    
    16    8    9 1    
    17    8   79 1    
    18    8   80 1    
    19    9   10 ar   
    20    9   14 ar   
    21   10   11 ar   
    22   10   81 1    
    23   11   12 ar   
    24   11   71 1    
    25   12   13 ar   
    26   12   82 1    
    27   13   14 ar   
    28   13   15 1    
    29   14   83 1    
    30   15   16 1    
    31   15   84 1    
    32   15   85 1    
    33   16   17 1    
    34   17   18 1    
    35   17   86 1    
    36   17   87 1    
    37   18   19 1    
    38   18   37 1    
    39   18   88 1    
    40   19   20 am   BACKBONE|DICT|INTERRES
    41   19   89 1    
    42   20   21 2    
    43   20   22 1    
    44   22   23 1    
    45   22   24 1    
    46   22   90 1    
    47   23   91 1    
    48   23   92 1    
    49   23   93 1    
    50   24   25 am   BACKBONE|DICT|INTERRES
    51   24   94 1    
    52   25   26 2    
    53   25   27 1    
    54   27   28 1    
    55   27   29 1    
    56   27   95 1    
    57   28   96 1    
    58   28   97 1    
    59   28   98 1    
    60   29   30 am   BACKBONE|DICT|INTERRES
    61   29   99 1    
    62   30   31 2    
    63   30   32 1    
    64   32   33 1    
    65   32   34 1    
    66   32  100 1    
    67   33  101 1    
    68   33  102 1    
    69   33  103 1    
    70   34   35 am   BACKBONE|DICT|INTERRES
    71   34  104 1    
    72   35   36 2    
    73   37   38 2    
    74   37   39 am   BACKBONE|DICT|INTERRES
    75   39   40 1    
    76   39  105 1    
    77   40   41 1    
    78   40   42 1    
    79   40  106 1    
    80   41  107 1    
    81   41  108 1    
    82   41  109 1    
    83   42   43 2    
    84   42   44 am   BACKBONE|DICT|INTERRES
    85   44   45 1    
    86   44  110 1    
    87   45   46 1    
    88   45   47 1    
    89   45  111 1    
    90   46  112 1    
    91   46  113 1    
    92   46  114 1    
    93   47   48 2    
    94   47   49 am   BACKBONE|DICT|INTERRES
    95   49   50 1    
    96   49  115 1    
    97   50   51 1    
    98   50   52 1    
    99   50  116 1    
   100   51  117 1    
   101   51  118 1    
   102   51  119 1    
   103   52   53 2    
   104   52   54 am   BACKBONE|DICT|INTERRES
   105   54   55 1    
   106   54  120 1    
   107   55   56 1    
   108   55   57 1    
   109   55  121 1    
   110   56  122 1    
   111   56  123 1    
   112   56  124 1    
   113   57   58 2    
   114   57   59 am   BACKBONE|DICT|INTERRES
   115   59   60 1    
   116   59  125 1    
   117   60   61 1    
   118   60   62 1    
   119   60  126 1    
   120   61  127 1    
   121   61  128 1    
   122   61  129 1    
   123   62   63 2    
   124   62   64 am   BACKBONE|DICT|INTERRES
   125   64   65 1    
   126   64  130 1    
   127   65   66 1    
   128   65   69 1    
   129   65  131 1    
   130   66   67 am   BACKBONE|DICT|INTERRES
   131   66   68 2    
   132   67  132 1    
   133   67  133 1    
   134   69   70 1    
   135   69  134 1    
   136   69  135 1    
   137   70   71 1    
   138   71  136 1    
   139   71  137 1    
@<TRIPOS>SUBSTRUCTURE
     1 UNK         1 GROUP             0       ****    0 ROOT    
