@<TRIPOS>MOLECULE
3R137
137   139    1
SMALL
USER_CHARGES


@<TRIPOS>ATOM
      1 CA         28.1355   -5.1249    1.4792 C.3       0 UNK        -0.2020 
      2 C          27.7600   -4.0223    0.5015 C.2       0 UNK         0.4855 
      3 O          27.5594   -4.3021   -0.6804 O.2       0 UNK        -0.5197 
      4 N          27.6655   -2.7766    0.9886 N.am      1 UNK        -0.4892 
      5 CA         27.3324   -1.5311    0.2737 C.3       1 UNK         0.0835 
      6 C6         28.3077   -1.1662   -0.8771 C.3       12 UNK        -0.0855 
      7 S7         30.0053   -0.8399   -0.2929 S.3       12 UNK        -0.2931 
      8 C8         30.8913   -2.3565   -0.7774 C.3       12 UNK         0.0378 
      9 C9         30.9232   -2.5605   -2.2860 C.ar      12 UNK        -0.0802 
     10 C10        31.7202   -1.7419   -3.0903 C.ar      12 UNK        -0.0944 
     11 C11        31.7814   -1.9482   -4.4713 C.ar      12 UNK        -0.0787 
     12 C12        31.0360   -2.9807   -5.0485 C.ar      12 UNK        -0.0862 
     13 C13        30.2260   -3.8019   -4.2556 C.ar      12 UNK        -0.0733 
     14 C14        30.1783   -3.5867   -2.8753 C.ar      12 UNK        -0.0832 
     15 C15        29.4443   -4.9594   -4.8674 C.3       12 UNK         0.0240 
     16 S16        28.4495   -4.4818   -6.3161 S.3       12 UNK        -0.2522 
     17 C17        27.0910   -3.5274   -5.5607 C.3       12 UNK        -0.0967 
     18 CA         26.5001   -2.5101   -6.5721 C.3       5 UNK         0.0660 
     19 N          25.0619   -2.3076   -6.3895 N.am      5 UNK        -0.4015 
     20 C          24.2109   -2.0171   -7.3853 C.2       4 UNK         0.4946 
     21 O          24.5353   -1.9640   -8.5721 O.2       4 UNK        -0.5353 
     22 CA         22.7452   -1.7321   -7.0081 C.3       4 UNK         0.0277 
     23 CB         21.9019   -3.0118   -7.1287 C.3       4 UNK        -0.1981 
     24 N          22.5781   -1.1676   -5.6673 N.am      4 UNK        -0.4209 
     25 C          23.0307    0.0345   -5.2852 C.2       3 UNK         0.4942 
     26 O          23.6254    0.8128   -6.0279 O.2       3 UNK        -0.5208 
     27 CA         22.8423    0.4036   -3.8056 C.3       3 UNK         0.0250 
     28 CB         21.4555    1.0256   -3.5775 C.3       3 UNK        -0.1990 
     29 N          23.0391   -0.7183   -2.8798 N.am      3 UNK        -0.4232 
     30 C          24.1457   -1.4707   -2.8022 C.2       2 UNK         0.4993 
     31 O          25.1063   -1.3728   -3.5728 O.2       2 UNK        -0.5286 
     32 CA         24.1765   -2.5381   -1.6988 C.3       2 UNK         0.0209 
     33 CB         23.9854   -3.9385   -2.3030 C.3       2 UNK        -0.1931 
     34 N          25.4492   -2.4943   -0.9822 N.am      2 UNK        -0.4546 
     35 C          25.8737   -1.4771   -0.2234 C.2       1 UNK         0.5154 
     36 O          25.1660   -0.5156    0.0822 O.2       1 UNK        -0.5181 
     37 C          27.2333   -1.1576   -6.5396 C.2       5 UNK         0.5014 
     38 O          28.0662   -0.9001   -7.4087 O.2       5 UNK        -0.5248 
     39 N          26.8762   -0.2946   -5.5745 N.am      6 UNK        -0.4434 
     40 CA         27.4209    1.0590   -5.4164 C.3       6 UNK         0.0363 
     41 CB         26.8209    1.7080   -4.1603 C.3       6 UNK        -0.1936 
     42 C          27.2026    1.9575   -6.6486 C.2       6 UNK         0.5081 
     43 O          28.0920    2.7356   -6.9966 O.2       6 UNK        -0.5248 
     44 N          26.0538    1.7921   -7.3215 N.am      7 UNK        -0.4718 
     45 CA         25.6778    2.4678   -8.5686 C.3       7 UNK         0.0273 
     46 CB         24.2406    2.0696   -8.9442 C.3       7 UNK        -0.1935 
     47 C          26.6241    2.2259   -9.7611 C.2       7 UNK         0.5018 
     48 O          26.5674    2.9957  -10.7212 O.2       7 UNK        -0.5186 
     49 N          27.4830    1.1961   -9.6937 N.am      8 UNK        -0.4240 
     50 CA         28.5362    0.9441  -10.6815 C.3       8 UNK         0.0235 
     51 CB         29.1085   -0.4679  -10.4781 C.3       8 UNK        -0.2000 
     52 C          29.6703    1.9857  -10.6416 C.2       8 UNK         0.4941 
     53 O          30.3888    2.1113  -11.6347 O.2       8 UNK        -0.5273 
     54 N          29.8263    2.6963   -9.5110 N.am      9 UNK        -0.4262 
     55 CA         30.8120    3.7441   -9.2008 C.3       9 UNK         0.0264 
     56 CB         30.6607    4.9574  -10.1388 C.3       9 UNK        -0.1955 
     57 C          32.2735    3.2601   -9.1442 C.2       9 UNK         0.5031 
     58 O          32.9797    3.5903   -8.1899 O.2       9 UNK        -0.5390 
     59 N          32.7004    2.4868  -10.1482 N.am      10 UNK        -0.4204 
     60 CA         33.9813    1.7842  -10.1973 C.3       10 UNK         0.0237 
     61 CB         34.2132    1.2733  -11.6287 C.3       10 UNK        -0.1985 
     62 C          34.0117    0.6181   -9.1955 C.2       10 UNK         0.4970 
     63 O          32.9635    0.0463   -8.8849 O.2       10 UNK        -0.4914 
     64 N          35.2155    0.2729   -8.7329 N.am      11 UNK        -0.4285 
     65 CA         35.4672   -0.7971   -7.7628 C.3       11 UNK         0.1007 
     66 C          36.8860   -1.3999   -7.9447 C.2       11 UNK         0.5703 
     67 N          37.2021   -2.4699   -7.2292 N.am      11 UNK        -0.7361 
     68 O          37.7040   -0.9080   -8.7219 O.2       11 UNK        -0.4986 
     69 C69        35.1825   -0.3261   -6.3058 C.3       12 UNK        -0.0947 
     70 S70        34.3899   -1.6203   -5.2982 S.3       12 UNK        -0.2240 
     71 C71        32.6606   -1.0577   -5.3329 C.3       12 UNK         0.0194 
     72 H72        29.0535   -5.6146    1.1554 H         1 UNK         0.0906 
     73 H73        27.3456   -5.8744    1.5194 H         1 UNK         0.0906 
     74 H74        28.2928   -4.7426    2.4876 H         1 UNK         0.0906 
     75 H75        27.8280   -2.6448    1.9778 H         1 UNK         0.3140 
     76 H76        27.4140   -0.7416    1.0232 H         1 UNK         0.1085 
     77 H77        27.9744   -0.2551   -1.3779 H         1 UNK         0.0836 
     78 H78        28.3068   -1.9352   -1.6493 H         1 UNK         0.0836 
     79 H79        31.9151   -2.2956   -0.4058 H         1 UNK         0.0731 
     80 H80        30.4421   -3.2147   -0.2776 H         1 UNK         0.0731 
     81 H81        32.3011   -0.9491   -2.6385 H         1 UNK         0.1312 
     82 H82        31.0896   -3.1491   -6.1156 H         1 UNK         0.1406 
     83 H83        29.5687   -4.2289   -2.2549 H         1 UNK         0.1631 
     84 H84        28.7872   -5.4232   -4.1297 H         1 UNK         0.0717 
     85 H85        30.1538   -5.7292   -5.1733 H         1 UNK         0.0717 
     86 H86        26.3304   -4.2492   -5.2587 H         1 UNK         0.0934 
     87 H87        27.4234   -3.0441   -4.6388 H         1 UNK         0.0934 
     88 H88        26.6408   -2.9186   -7.5758 H         1 UNK         0.0739 
     89 H89        24.7363   -2.2562   -5.4320 H         1 UNK         0.3093 
     90 H90        22.3630   -1.0014   -7.7244 H         1 UNK         0.0818 
     91 H91        21.9859   -3.4411   -8.1282 H         1 UNK         0.0819 
     92 H92        22.2210   -3.7759   -6.4186 H         1 UNK         0.0819 
     93 H93        20.8450   -2.8095   -6.9541 H         1 UNK         0.0819 
     94 H94        22.1022   -1.7391   -4.9845 H         1 UNK         0.3041 
     95 H95        23.5931    1.1565   -3.5603 H         1 UNK         0.0784 
     96 H96        21.2941    1.8737   -4.2448 H         1 UNK         0.0793 
     97 H97        20.6538    0.3092   -3.7614 H         1 UNK         0.0793 
     98 H98        21.3487    1.3955   -2.5575 H         1 UNK         0.0793 
     99 H99        22.2983   -0.8778   -2.2118 H         1 UNK         0.3024 
    100 H100       23.3747   -2.3467   -0.9822 H         1 UNK         0.1171 
    101 H101       23.0358   -4.0109   -2.8349 H         1 UNK         0.0786 
    102 H102       23.9823   -4.7061   -1.5288 H         1 UNK         0.0786 
    103 H103       24.7779   -4.1836   -3.0117 H         1 UNK         0.0786 
    104 H104       26.1128   -3.2464   -1.1544 H         1 UNK         0.2977 
    105 H105       26.1952   -0.5965   -4.8803 H         1 UNK         0.3127 
    106 H106       28.4982    0.9583   -5.2693 H         1 UNK         0.0770 
    107 H107       26.9917    1.0966   -3.2742 H         1 UNK         0.0814 
    108 H108       27.2705    2.6843   -3.9746 H         1 UNK         0.0814 
    109 H109       25.7464    1.8585   -4.2625 H         1 UNK         0.0814 
    110 H110       25.3475    1.1834   -6.9165 H         1 UNK         0.2983 
    111 H111       25.6941    3.5416   -8.3713 H         1 UNK         0.0947 
    112 H112       24.1413    0.9899   -9.0640 H         1 UNK         0.0806 
    113 H113       23.9332    2.5335   -9.8826 H         1 UNK         0.0806 
    114 H114       23.5294    2.3903   -8.1832 H         1 UNK         0.0806 
    115 H115       27.4781    0.6026   -8.8709 H         1 UNK         0.3000 
    116 H116       28.0846    0.9885  -11.6749 H         1 UNK         0.0850 
    117 H117       29.8164   -0.7180  -11.2694 H         1 UNK         0.0810 
    118 H118       28.3236   -1.2244  -10.4920 H         1 UNK         0.0810 
    119 H119       29.6422   -0.5537   -9.5304 H         1 UNK         0.0810 
    120 H120       29.1862    2.4971   -8.7477 H         1 UNK         0.3040 
    121 H121       30.5596    4.0811   -8.1938 H         1 UNK         0.0766 
    122 H122       30.9013    4.7096  -11.1730 H         1 UNK         0.0812 
    123 H123       31.3270    5.7665   -9.8370 H         1 UNK         0.0812 
    124 H124       29.6437    5.3493  -10.1166 H         1 UNK         0.0812 
    125 H125       32.0134    2.2530  -10.8633 H         1 UNK         0.3205 
    126 H126       34.7716    2.4926   -9.9398 H         1 UNK         0.0754 
    127 H127       35.1735    0.7629  -11.7139 H         1 UNK         0.0769 
    128 H128       34.2187    2.0940  -12.3464 H         1 UNK         0.0769 
    129 H129       33.4393    0.5672  -11.9339 H         1 UNK         0.0769 
    130 H130       36.0477    0.7312   -9.0800 H         1 UNK         0.2981 
    131 H131       34.7824   -1.6079   -8.0206 H         1 UNK         0.0541 
    132 H132       38.1185   -2.8778   -7.3294 H         1 UNK         0.3459 
    133 H133       36.5419   -2.8638   -6.5761 H         1 UNK         0.3459 
    134 H134       34.5330    0.5508   -6.2995 H         1 UNK         0.0612 
    135 H135       36.0965   -0.0015   -5.8050 H         1 UNK         0.0612 
    136 H136       32.6023   -0.0288   -4.9743 H         1 UNK         0.0624 
    137 H137       32.3034   -1.0486   -6.3641 H         1 UNK         0.0624 
@<TRIPOS>BOND
     1    1    2 1    
     2    1   72 1    
     3    1   73 1    
     4    1   74 1    
     5    2    3 2    
     6    2    4 am   BACKBONE|DICT|INTERRES
     7    4    5 1    
     8    4   75 1    
     9    5    6 1    
    10    5   35 1    
    11    5   76 1    
    12    6    7 1    
    13    6   77 1    
    14    6   78 1    
    15    7    8 1    
    16    8    9 1    
    17    8   79 1    
    18    8   80 1    
    19    9   10 ar   
    20    9   14 ar   
    21   10   11 ar   
    22   10   81 1    
    23   11   12 ar   
    24   11   71 1    
    25   12   13 ar   
    26   12   82 1    
    27   13   14 ar   
    28   13   15 1    
    29   14   83 1    
    30   15   16 1    
    31   15   84 1    
    32   15   85 1    
    33   16   17 1    
    34   17   18 1    
    35   17   86 1    
    36   17   87 1    
    37   18   19 1    
    38   18   37 1    
    39   18   88 1    
    40   19   20 am   BACKBONE|DICT|INTERRES
    41   19   89 1    
    42   20   21 2    
    43   20   22 1    
    44   22   23 1    
    45   22   24 1    
    46   22   90 1    
    47   23   91 1    
    48   23   92 1    
    49   23   93 1    
    50   24   25 am   BACKBONE|DICT|INTERRES
    51   24   94 1    
    52   25   26 2    
    53   25   27 1    
    54   27   28 1    
    55   27   29 1    
    56   27   95 1    
    57   28   96 1    
    58   28   97 1    
    59   28   98 1    
    60   29   30 am   BACKBONE|DICT|INTERRES
    61   29   99 1    
    62   30   31 2    
    63   30   32 1    
    64   32   33 1    
    65   32   34 1    
    66   32  100 1    
    67   33  101 1    
    68   33  102 1    
    69   33  103 1    
    70   34   35 am   BACKBONE|DICT|INTERRES
    71   34  104 1    
    72   35   36 2    
    73   37   38 2    
    74   37   39 am   BACKBONE|DICT|INTERRES
    75   39   40 1    
    76   39  105 1    
    77   40   41 1    
    78   40   42 1    
    79   40  106 1    
    80   41  107 1    
    81   41  108 1    
    82   41  109 1    
    83   42   43 2    
    84   42   44 am   BACKBONE|DICT|INTERRES
    85   44   45 1    
    86   44  110 1    
    87   45   46 1    
    88   45   47 1    
    89   45  111 1    
    90   46  112 1    
    91   46  113 1    
    92   46  114 1    
    93   47   48 2    
    94   47   49 am   BACKBONE|DICT|INTERRES
    95   49   50 1    
    96   49  115 1    
    97   50   51 1    
    98   50   52 1    
    99   50  116 1    
   100   51  117 1    
   101   51  118 1    
   102   51  119 1    
   103   52   53 2    
   104   52   54 am   BACKBONE|DICT|INTERRES
   105   54   55 1    
   106   54  120 1    
   107   55   56 1    
   108   55   57 1    
   109   55  121 1    
   110   56  122 1    
   111   56  123 1    
   112   56  124 1    
   113   57   58 2    
   114   57   59 am   BACKBONE|DICT|INTERRES
   115   59   60 1    
   116   59  125 1    
   117   60   61 1    
   118   60   62 1    
   119   60  126 1    
   120   61  127 1    
   121   61  128 1    
   122   61  129 1    
   123   62   63 2    
   124   62   64 am   BACKBONE|DICT|INTERRES
   125   64   65 1    
   126   64  130 1    
   127   65   66 1    
   128   65   69 1    
   129   65  131 1    
   130   66   67 am   BACKBONE|DICT|INTERRES
   131   66   68 2    
   132   67  132 1    
   133   67  133 1    
   134   69   70 1    
   135   69  134 1    
   136   69  135 1    
   137   70   71 1    
   138   71  136 1    
   139   71  137 1    
@<TRIPOS>SUBSTRUCTURE
     1 UNK         1 GROUP             0       ****    0 ROOT    
