@<TRIPOS>MOLECULE
3R137
137   139    1
SMALL
USER_CHARGES


@<TRIPOS>ATOM
      1 CA         25.5938   -1.2753    0.2662 C.3       0 UNK        -0.2020 
      2 C          26.1468   -1.9320   -0.9892 C.2       0 UNK         0.4855 
      3 O          26.0013   -1.3832   -2.0845 O.2       0 UNK        -0.5197 
      4 N          26.7756   -3.1092   -0.8431 N.am      1 UNK        -0.4892 
      5 CA         27.2880   -3.9069   -1.9658 C.3       1 UNK         0.0835 
      6 C6         28.2081   -5.0720   -1.5367 C.3       12 UNK        -0.0855 
      7 S7         29.6552   -4.5236   -0.5711 S.3       12 UNK        -0.2931 
      8 C8         30.9156   -4.2291   -1.8678 C.3       12 UNK         0.0378 
      9 C9         30.9409   -2.8097   -2.4418 C.ar      12 UNK        -0.0802 
     10 C10        31.4281   -2.6005   -3.7377 C.ar      12 UNK        -0.0944 
     11 C11        31.5352   -1.3072   -4.2639 C.ar      12 UNK        -0.0787 
     12 C12        31.1352   -0.2139   -3.4917 C.ar      12 UNK        -0.0862 
     13 C13        30.6456   -0.4036   -2.1979 C.ar      12 UNK        -0.0733 
     14 C14        30.5614   -1.6993   -1.6780 C.ar      12 UNK        -0.0832 
     15 C15        30.2521    0.7874   -1.3355 C.3       12 UNK         0.0240 
     16 S16        28.5204    0.6779   -0.7882 S.3       12 UNK        -0.2522 
     17 C17        27.5895    1.7720   -1.9131 C.3       12 UNK        -0.0967 
     18 CA         27.8804    1.6462   -3.4313 C.3       5 UNK         0.0660 
     19 N          27.5672    0.3218   -3.9898 N.am      5 UNK        -0.4015 
     20 C          27.9354   -0.0509   -5.2280 C.2       4 UNK         0.4946 
     21 O          28.6217    0.6500   -5.9723 O.2       4 UNK        -0.5353 
     22 CA         27.4196   -1.3895   -5.7805 C.3       4 UNK         0.0277 
     23 CB         28.4440   -2.5092   -5.5603 C.3       4 UNK        -0.1981 
     24 N          26.1054   -1.8004   -5.2820 N.am      4 UNK        -0.4209 
     25 C          24.9686   -1.1119   -5.4787 C.2       3 UNK         0.4942 
     26 O          24.9496    0.0022   -6.0033 O.2       3 UNK        -0.5208 
     27 CA         23.6321   -1.7445   -5.0478 C.3       3 UNK         0.0250 
     28 CB         22.6403   -1.8100   -6.2235 C.3       3 UNK        -0.1990 
     29 N          23.8066   -3.0805   -4.4794 N.am      3 UNK        -0.4232 
     30 C          23.1260   -3.5857   -3.4460 C.2       2 UNK         0.4993 
     31 O          22.1574   -3.0368   -2.9198 O.2       2 UNK        -0.5286 
     32 CA         23.6591   -4.9059   -2.8604 C.3       2 UNK         0.0209 
     33 CB         23.6249   -6.0648   -3.8792 C.3       2 UNK        -0.1931 
     34 N          24.9877   -4.7239   -2.2558 N.am      2 UNK        -0.4546 
     35 C          26.1429   -4.4126   -2.8669 C.2       1 UNK         0.5154 
     36 O          26.2950   -4.4180   -4.0890 O.2       1 UNK        -0.5181 
     37 C          27.1514    2.7846   -4.1787 C.2       5 UNK         0.5014 
     38 O          27.7022    3.8822   -4.2762 O.2       5 UNK        -0.5248 
     39 N          25.9344    2.5195   -4.6766 N.am      6 UNK        -0.4434 
     40 CA         25.1423    3.4753   -5.4510 C.3       6 UNK         0.0363 
     41 CB         23.6473    3.1383   -5.3231 C.3       6 UNK        -0.1936 
     42 C          25.5750    3.4971   -6.9240 C.2       6 UNK         0.5081 
     43 O          25.6434    4.5745   -7.5160 O.2       6 UNK        -0.5248 
     44 N          25.8585    2.3137   -7.4875 N.am      7 UNK        -0.4718 
     45 CA         26.3063    2.1429   -8.8710 C.3       7 UNK         0.0273 
     46 CB         26.2300    0.6580   -9.2601 C.3       7 UNK        -0.1935 
     47 C          27.7207    2.6902   -9.1199 C.2       7 UNK         0.5018 
     48 O          27.9565    3.2721  -10.1797 O.2       7 UNK        -0.5186 
     49 N          28.6348    2.4742   -8.1600 N.am      8 UNK        -0.4240 
     50 CA         30.0561    2.8531   -8.1268 C.3       8 UNK         0.0235 
     51 CB         30.2395    4.3812   -8.1923 C.3       8 UNK        -0.2000 
     52 C          30.9297    2.1372   -9.1725 C.2       8 UNK         0.4941 
     53 O          31.9696    1.5836   -8.8140 O.2       8 UNK        -0.5273 
     54 N          30.4784    2.1146  -10.4341 N.am      9 UNK        -0.4262 
     55 CA         31.1245    1.4787  -11.5888 C.3       9 UNK         0.0264 
     56 CB         30.2934    1.7666  -12.8490 C.3       9 UNK        -0.1955 
     57 C          31.3587   -0.0353  -11.4348 C.2       9 UNK         0.5031 
     58 O          32.2488   -0.5762  -12.0914 O.2       9 UNK        -0.5390 
     59 N          30.5990   -0.6811  -10.5392 N.am      10 UNK        -0.4204 
     60 CA         30.7680   -2.0705  -10.1064 C.3       10 UNK         0.0237 
     61 CB         29.6503   -2.4101   -9.1075 C.3       10 UNK        -0.1985 
     62 C          32.1514   -2.3761   -9.4953 C.2       10 UNK         0.4970 
     63 O          32.5991   -3.5199   -9.5821 O.2       10 UNK        -0.4914 
     64 N          32.8057   -1.3606   -8.9145 N.am      11 UNK        -0.4285 
     65 CA         34.1964   -1.4213   -8.4399 C.3       11 UNK         0.1007 
     66 C          35.2511   -1.1612   -9.5585 C.2       11 UNK         0.5703 
     67 N          34.8757   -0.8841  -10.8024 N.am      11 UNK        -0.7361 
     68 O          36.4495   -1.2346   -9.2966 O.2       11 UNK        -0.4986 
     69 C69        34.4037   -0.4895   -7.2130 C.3       12 UNK        -0.0947 
     70 S70        33.9142   -1.2695   -5.6410 S.3       12 UNK        -0.2240 
     71 C71        32.1065   -1.0830   -5.6563 C.3       12 UNK         0.0194 
     72 H72        25.9772   -1.7435    1.1723 H         1 UNK         0.0906 
     73 H73        25.8635   -0.2202    0.2921 H         1 UNK         0.0906 
     74 H74        24.5067   -1.3466    0.2756 H         1 UNK         0.0906 
     75 H75        26.9139   -3.4994    0.0787 H         1 UNK         0.3140 
     76 H76        27.8897   -3.2275   -2.5675 H         1 UNK         0.1085 
     77 H77        28.5561   -5.6286   -2.4093 H         1 UNK         0.0836 
     78 H78        27.6527   -5.7887   -0.9286 H         1 UNK         0.0836 
     79 H79        30.7915   -4.9602   -2.6679 H         1 UNK         0.0731 
     80 H80        31.8959   -4.4246   -1.4313 H         1 UNK         0.0731 
     81 H81        31.7513   -3.4431   -4.3338 H         1 UNK         0.1312 
     82 H82        31.2201    0.7857   -3.8953 H         1 UNK         0.1406 
     83 H83        30.2060   -1.8323   -0.6657 H         1 UNK         0.1631 
     84 H84        30.4328    1.7363   -1.8416 H         1 UNK         0.0717 
     85 H85        30.8902    0.7942   -0.4509 H         1 UNK         0.0717 
     86 H86        26.5279    1.6009   -1.7235 H         1 UNK         0.0934 
     87 H87        27.7873    2.7924   -1.5770 H         1 UNK         0.0934 
     88 H88        28.9447    1.8193   -3.5926 H         1 UNK         0.0739 
     89 H89        27.0155   -0.3065   -3.4104 H         1 UNK         0.3093 
     90 H90        27.3123   -1.2652   -6.8584 H         1 UNK         0.0818 
     91 H91        28.6557   -2.6606   -4.5057 H         1 UNK         0.0819 
     92 H92        28.1055   -3.4559   -5.9815 H         1 UNK         0.0819 
     93 H93        29.3908   -2.2657   -6.0375 H         1 UNK         0.0819 
     94 H94        26.0816   -2.6930   -4.8009 H         1 UNK         0.3041 
     95 H95        23.2223   -1.0817   -4.2827 H         1 UNK         0.0784 
     96 H96        22.4700   -0.8210   -6.6512 H         1 UNK         0.0793 
     97 H97        23.0083   -2.4539   -7.0230 H         1 UNK         0.0793 
     98 H98        21.6713   -2.1929   -5.9031 H         1 UNK         0.0793 
     99 H99        24.5967   -3.6220   -4.8118 H         1 UNK         0.3024 
    100 H100       22.9891   -5.1769   -2.0423 H         1 UNK         0.1171 
    101 H101       23.9546   -6.9981   -3.4228 H         1 UNK         0.0786 
    102 H102       22.6100   -6.2255   -4.2451 H         1 UNK         0.0786 
    103 H103       24.2538   -5.8818   -4.7502 H         1 UNK         0.0786 
    104 H104       24.9839   -4.6487   -1.2477 H         1 UNK         0.2977 
    105 H105       25.5759    1.5740   -4.6256 H         1 UNK         0.3127 
    106 H106       25.2939    4.4769   -5.0421 H         1 UNK         0.0770 
    107 H107       23.4126    2.1539   -5.7290 H         1 UNK         0.0814 
    108 H108       23.0393    3.8646   -5.8639 H         1 UNK         0.0814 
    109 H109       23.3244    3.1574   -4.2822 H         1 UNK         0.0814 
    110 H110       25.7028    1.4692   -6.9421 H         1 UNK         0.2983 
    111 H111       25.6197    2.6982   -9.5139 H         1 UNK         0.0947 
    112 H112       26.4670    0.5203  -10.3160 H         1 UNK         0.0806 
    113 H113       25.2307    0.2538   -9.0961 H         1 UNK         0.0806 
    114 H114       26.9338    0.0542   -8.6888 H         1 UNK         0.0806 
    115 H115       28.3480    1.9193   -7.3557 H         1 UNK         0.3000 
    116 H116       30.4162    2.5253   -7.1498 H         1 UNK         0.0850 
    117 H117       31.2889    4.6517   -8.0682 H         1 UNK         0.0810 
    118 H118       29.6802    4.8787   -7.3998 H         1 UNK         0.0810 
    119 H119       29.9093    4.7950   -9.1454 H         1 UNK         0.0810 
    120 H120       29.5948    2.5922  -10.6054 H         1 UNK         0.3040 
    121 H121       32.1051    1.9436  -11.7081 H         1 UNK         0.0766 
    122 H122       30.7584    1.3289  -13.7337 H         1 UNK         0.0812 
    123 H123       30.2038    2.8381  -13.0290 H         1 UNK         0.0812 
    124 H124       29.2865    1.3545  -12.7707 H         1 UNK         0.0812 
    125 H125       29.8955   -0.1415  -10.0579 H         1 UNK         0.3205 
    126 H126       30.6543   -2.7077  -10.9858 H         1 UNK         0.0754 
    127 H127       29.6555   -1.7239   -8.2607 H         1 UNK         0.0769 
    128 H128       29.7632   -3.4217   -8.7144 H         1 UNK         0.0769 
    129 H129       28.6678   -2.3541   -9.5766 H         1 UNK         0.0769 
    130 H130       32.3857   -0.4370   -8.9079 H         1 UNK         0.2981 
    131 H131       34.4009   -2.4428   -8.1140 H         1 UNK         0.0541 
    132 H132       33.8986   -0.8409  -11.0712 H         1 UNK         0.3459 
    133 H133       35.5867   -0.7311  -11.4994 H         1 UNK         0.3459 
    134 H134       33.8796    0.4589   -7.3368 H         1 UNK         0.0612 
    135 H135       35.4555   -0.2251   -7.0897 H         1 UNK         0.0612 
    136 H136       31.6798   -1.8043   -6.3532 H         1 UNK         0.0624 
    137 H137       31.8381   -0.0922   -6.0274 H         1 UNK         0.0624 
@<TRIPOS>BOND
     1    1    2 1    
     2    1   72 1    
     3    1   73 1    
     4    1   74 1    
     5    2    3 2    
     6    2    4 am   BACKBONE|DICT|INTERRES
     7    4    5 1    
     8    4   75 1    
     9    5    6 1    
    10    5   35 1    
    11    5   76 1    
    12    6    7 1    
    13    6   77 1    
    14    6   78 1    
    15    7    8 1    
    16    8    9 1    
    17    8   79 1    
    18    8   80 1    
    19    9   10 ar   
    20    9   14 ar   
    21   10   11 ar   
    22   10   81 1    
    23   11   12 ar   
    24   11   71 1    
    25   12   13 ar   
    26   12   82 1    
    27   13   14 ar   
    28   13   15 1    
    29   14   83 1    
    30   15   16 1    
    31   15   84 1    
    32   15   85 1    
    33   16   17 1    
    34   17   18 1    
    35   17   86 1    
    36   17   87 1    
    37   18   19 1    
    38   18   37 1    
    39   18   88 1    
    40   19   20 am   BACKBONE|DICT|INTERRES
    41   19   89 1    
    42   20   21 2    
    43   20   22 1    
    44   22   23 1    
    45   22   24 1    
    46   22   90 1    
    47   23   91 1    
    48   23   92 1    
    49   23   93 1    
    50   24   25 am   BACKBONE|DICT|INTERRES
    51   24   94 1    
    52   25   26 2    
    53   25   27 1    
    54   27   28 1    
    55   27   29 1    
    56   27   95 1    
    57   28   96 1    
    58   28   97 1    
    59   28   98 1    
    60   29   30 am   BACKBONE|DICT|INTERRES
    61   29   99 1    
    62   30   31 2    
    63   30   32 1    
    64   32   33 1    
    65   32   34 1    
    66   32  100 1    
    67   33  101 1    
    68   33  102 1    
    69   33  103 1    
    70   34   35 am   BACKBONE|DICT|INTERRES
    71   34  104 1    
    72   35   36 2    
    73   37   38 2    
    74   37   39 am   BACKBONE|DICT|INTERRES
    75   39   40 1    
    76   39  105 1    
    77   40   41 1    
    78   40   42 1    
    79   40  106 1    
    80   41  107 1    
    81   41  108 1    
    82   41  109 1    
    83   42   43 2    
    84   42   44 am   BACKBONE|DICT|INTERRES
    85   44   45 1    
    86   44  110 1    
    87   45   46 1    
    88   45   47 1    
    89   45  111 1    
    90   46  112 1    
    91   46  113 1    
    92   46  114 1    
    93   47   48 2    
    94   47   49 am   BACKBONE|DICT|INTERRES
    95   49   50 1    
    96   49  115 1    
    97   50   51 1    
    98   50   52 1    
    99   50  116 1    
   100   51  117 1    
   101   51  118 1    
   102   51  119 1    
   103   52   53 2    
   104   52   54 am   BACKBONE|DICT|INTERRES
   105   54   55 1    
   106   54  120 1    
   107   55   56 1    
   108   55   57 1    
   109   55  121 1    
   110   56  122 1    
   111   56  123 1    
   112   56  124 1    
   113   57   58 2    
   114   57   59 am   BACKBONE|DICT|INTERRES
   115   59   60 1    
   116   59  125 1    
   117   60   61 1    
   118   60   62 1    
   119   60  126 1    
   120   61  127 1    
   121   61  128 1    
   122   61  129 1    
   123   62   63 2    
   124   62   64 am   BACKBONE|DICT|INTERRES
   125   64   65 1    
   126   64  130 1    
   127   65   66 1    
   128   65   69 1    
   129   65  131 1    
   130   66   67 am   BACKBONE|DICT|INTERRES
   131   66   68 2    
   132   67  132 1    
   133   67  133 1    
   134   69   70 1    
   135   69  134 1    
   136   69  135 1    
   137   70   71 1    
   138   71  136 1    
   139   71  137 1    
@<TRIPOS>SUBSTRUCTURE
     1 UNK         1 GROUP             0       ****    0 ROOT    
