@<TRIPOS>MOLECULE
3R137
137   139    1
SMALL
USER_CHARGES


@<TRIPOS>ATOM
      1 CA         25.1029   -6.8594   -2.7409 C.3       0 UNK        -0.2020 
      2 C          25.5833   -5.7700   -1.7944 C.2       0 UNK         0.4855 
      3 O          24.8293   -5.3410   -0.9206 O.2       0 UNK        -0.5197 
      4 N          26.8292   -5.3087   -1.9651 N.am      1 UNK        -0.4892 
      5 CA         27.4605   -4.2487   -1.1708 C.3       1 UNK         0.0835 
      6 C6         29.0065   -4.3506   -1.2560 C.3       12 UNK        -0.0855 
      7 S7         29.8299   -3.5449    0.1549 S.3       12 UNK        -0.2931 
      8 C8         31.4482   -3.1137   -0.5740 C.3       12 UNK         0.0378 
      9 C9         31.4160   -1.9217   -1.5297 C.ar      12 UNK        -0.0802 
     10 C10        32.2380   -1.9198   -2.6620 C.ar      12 UNK        -0.0944 
     11 C11        32.2856   -0.8062   -3.5071 C.ar      12 UNK        -0.0787 
     12 C12        31.4795    0.3037   -3.2306 C.ar      12 UNK        -0.0862 
     13 C13        30.6498    0.3168   -2.1060 C.ar      12 UNK        -0.0733 
     14 C14        30.6336   -0.7940   -1.2562 C.ar      12 UNK        -0.0832 
     15 C15        29.8154    1.5476   -1.7707 C.3       12 UNK         0.0240 
     16 S16        28.0482    1.1430   -1.5976 S.3       12 UNK        -0.2522 
     17 C17        27.2686    2.0359   -2.9831 C.3       12 UNK        -0.0967 
     18 CA         27.7315    1.6178   -4.4045 C.3       5 UNK         0.0660 
     19 N          27.8401    0.1677   -4.5924 N.am      5 UNK        -0.4015 
     20 C          28.3639   -0.4172   -5.6811 C.2       4 UNK         0.4946 
     21 O          28.8966    0.2036   -6.6016 O.2       4 UNK        -0.5353 
     22 CA         28.2067   -1.9416   -5.7947 C.3       4 UNK         0.0277 
     23 CB         29.3417   -2.6745   -5.0626 C.3       4 UNK        -0.1981 
     24 N          26.9139   -2.3823   -5.2669 N.am      4 UNK        -0.4209 
     25 C          25.7466   -2.2399   -5.9135 C.2       3 UNK         0.4942 
     26 O          25.6504   -1.7788   -7.0492 O.2       3 UNK        -0.5208 
     27 CA         24.4639   -2.6596   -5.1707 C.3       3 UNK         0.0250 
     28 CB         24.1287   -4.1285   -5.4739 C.3       3 UNK        -0.1990 
     29 N          24.5395   -2.4719   -3.7212 N.am      3 UNK        -0.4232 
     30 C          24.6904   -1.2926   -3.1013 C.2       2 UNK         0.4993 
     31 O          24.7019   -0.2089   -3.6839 O.2       2 UNK        -0.5286 
     32 CA         24.9477   -1.3434   -1.5842 C.3       2 UNK         0.0209 
     33 CB         23.6242   -1.2628   -0.8085 C.3       2 UNK        -0.1931 
     34 N          25.6930   -2.5382   -1.1635 N.am      2 UNK        -0.4546 
     35 C          26.9124   -2.8740   -1.6091 C.2       1 UNK         0.5154 
     36 O          27.5363   -2.1900   -2.4200 O.2       1 UNK        -0.5181 
     37 C          26.8028    2.2403   -5.4685 C.2       5 UNK         0.5014 
     38 O          27.1890    3.2044   -6.1319 O.2       5 UNK        -0.5248 
     39 N          25.6111    1.6449   -5.6392 N.am      6 UNK        -0.4434 
     40 CA         24.5895    2.0375   -6.6167 C.3       6 UNK         0.0363 
     41 CB         23.3183    1.2068   -6.3836 C.3       6 UNK        -0.1936 
     42 C          25.0397    1.9224   -8.0847 C.2       6 UNK         0.5081 
     43 O          24.5044    2.6358   -8.9330 O.2       6 UNK        -0.5248 
     44 N          26.0318    1.0641   -8.3592 N.am      7 UNK        -0.4718 
     45 CA         26.6908    0.9266   -9.6607 C.3       7 UNK         0.0273 
     46 CB         27.4073   -0.4336   -9.7244 C.3       7 UNK        -0.1935 
     47 C          27.6631    2.0786   -9.9893 C.2       7 UNK         0.5018 
     48 O          28.2500    2.0593  -11.0706 O.2       7 UNK        -0.5186 
     49 N          27.8307    3.0477   -9.0737 N.am      8 UNK        -0.4240 
     50 CA         28.6663    4.2483   -9.1931 C.3       8 UNK         0.0235 
     51 CB         28.1358    5.1861  -10.2991 C.3       8 UNK        -0.2000 
     52 C          30.1556    3.8991   -9.3530 C.2       8 UNK         0.4941 
     53 O          30.8100    4.3641  -10.2875 O.2       8 UNK        -0.5273 
     54 N          30.6441    3.0574   -8.4318 N.am      9 UNK        -0.4262 
     55 CA         32.0148    2.5454   -8.3162 C.3       9 UNK         0.0264 
     56 CB         33.0532    3.6834   -8.2149 C.3       9 UNK        -0.1955 
     57 C          32.4051    1.4897   -9.3688 C.2       9 UNK         0.5031 
     58 O          33.5454    1.0222   -9.3414 O.2       9 UNK        -0.5390 
     59 N          31.4678    1.0538  -10.2246 N.am      10 UNK        -0.4204 
     60 CA         31.6218   -0.1149  -11.1006 C.3       10 UNK         0.0237 
     61 CB         30.7270    0.0508  -12.3422 C.3       10 UNK        -0.1985 
     62 C          31.3283   -1.4095  -10.3147 C.2       10 UNK         0.4970 
     63 O          30.4054   -2.1519  -10.6538 O.2       10 UNK        -0.4914 
     64 N          32.0917   -1.6113   -9.2369 N.am      11 UNK        -0.4285 
     65 CA         31.9244   -2.6719   -8.2374 C.3       11 UNK         0.1007 
     66 C          32.2431   -4.0849   -8.7942 C.2       11 UNK         0.5703 
     67 N          31.5761   -5.1143   -8.2897 N.am      11 UNK        -0.7361 
     68 O          33.1140   -4.2618   -9.6447 O.2       11 UNK        -0.4986 
     69 C69        32.7613   -2.3700   -6.9650 C.3       12 UNK        -0.0947 
     70 S70        32.3978   -0.7184   -6.2778 S.3       12 UNK        -0.2240 
     71 C71        33.2572   -0.7675   -4.6788 C.3       12 UNK         0.0194 
     72 H72        24.1761   -6.5546   -3.2262 H         1 UNK         0.0906 
     73 H73        25.8354   -7.0794   -3.5173 H         1 UNK         0.0906 
     74 H74        24.9095   -7.7773   -2.1864 H         1 UNK         0.0906 
     75 H75        27.3967   -5.6894   -2.7094 H         1 UNK         0.3140 
     76 H76        27.1734   -4.4002   -0.1272 H         1 UNK         0.1085 
     77 H77        29.3887   -3.9532   -2.1980 H         1 UNK         0.0836 
     78 H78        29.3125   -5.3979   -1.2331 H         1 UNK         0.0836 
     79 H79        31.8521   -3.9962   -1.0731 H         1 UNK         0.0731 
     80 H80        32.1382   -2.8781    0.2372 H         1 UNK         0.0731 
     81 H81        32.8689   -2.7737   -2.8679 H         1 UNK         0.1312 
     82 H82        31.5190    1.1654   -3.8829 H         1 UNK         0.1406 
     83 H83        30.0084   -0.7740   -0.3742 H         1 UNK         0.1631 
     84 H84        29.9524    2.3327   -2.5150 H         1 UNK         0.0717 
     85 H85        30.1700    1.9612   -0.8259 H         1 UNK         0.0717 
     86 H86        27.4356    3.1048   -2.8370 H         1 UNK         0.0934 
     87 H87        26.1926    1.8902   -2.8686 H         1 UNK         0.0934 
     88 H88        28.7295    2.0293   -4.5672 H         1 UNK         0.0739 
     89 H89        27.4808   -0.4161   -3.8467 H         1 UNK         0.3093 
     90 H90        28.2562   -2.2098   -6.8525 H         1 UNK         0.0818 
     91 H91        30.2864   -2.5254   -5.5775 H         1 UNK         0.0819 
     92 H92        29.4812   -2.3062   -4.0462 H         1 UNK         0.0819 
     93 H93        29.1663   -3.7490   -5.0145 H         1 UNK         0.0819 
     94 H94        26.9109   -2.6844   -4.2998 H         1 UNK         0.3041 
     95 H95        23.6472   -2.0380   -5.5423 H         1 UNK         0.0784 
     96 H96        24.0212   -4.2885   -6.5478 H         1 UNK         0.0793 
     97 H97        24.9102   -4.8030   -5.1220 H         1 UNK         0.0793 
     98 H98        23.1893   -4.4275   -5.0085 H         1 UNK         0.0793 
     99 H99        24.5341   -3.3046   -3.1508 H         1 UNK         0.3024 
    100 H100       25.5508   -0.4698   -1.3298 H         1 UNK         0.1171 
    101 H101       23.7979   -1.2022    0.2661 H         1 UNK         0.0786 
    102 H102       23.0584   -0.3747   -1.0942 H         1 UNK         0.0786 
    103 H103       22.9901   -2.1298   -0.9984 H         1 UNK         0.0786 
    104 H104       25.2028   -3.2082   -0.5821 H         1 UNK         0.2977 
    105 H105       25.3580    0.8835   -5.0099 H         1 UNK         0.3127 
    106 H106       24.3509    3.0871   -6.4329 H         1 UNK         0.0770 
    107 H107       23.4972    0.1460   -6.5591 H         1 UNK         0.0814 
    108 H108       22.5186    1.5184   -7.0570 H         1 UNK         0.0814 
    109 H109       22.9476    1.3215   -5.3648 H         1 UNK         0.0814 
    110 H110       26.3868    0.4836   -7.6104 H         1 UNK         0.2983 
    111 H111       25.9190    0.9353  -10.4332 H         1 UNK         0.0947 
    112 H112       28.2460   -0.4862   -9.0306 H         1 UNK         0.0806 
    113 H113       27.8036   -0.6211  -10.7225 H         1 UNK         0.0806 
    114 H114       26.7280   -1.2540   -9.4937 H         1 UNK         0.0806 
    115 H115       27.3485    2.9482   -8.1859 H         1 UNK         0.3000 
    116 H116       28.5757    4.7794   -8.2440 H         1 UNK         0.0850 
    117 H117       28.6906    6.1250  -10.3117 H         1 UNK         0.0810 
    118 H118       27.0859    5.4319  -10.1397 H         1 UNK         0.0810 
    119 H119       28.2295    4.7420  -11.2906 H         1 UNK         0.0810 
    120 H120       29.9980    2.7023   -7.7380 H         1 UNK         0.3040 
    121 H121       32.0335    2.0190   -7.3616 H         1 UNK         0.0766 
    122 H122       32.7753    4.4096   -7.4511 H         1 UNK         0.0812 
    123 H123       33.1713    4.2146   -9.1595 H         1 UNK         0.0812 
    124 H124       34.0342    3.2910   -7.9442 H         1 UNK         0.0812 
    125 H125       30.5511    1.4796  -10.1956 H         1 UNK         0.3205 
    126 H126       32.6553   -0.1718  -11.4493 H         1 UNK         0.0754 
    127 H127       30.8763   -0.7726  -13.0416 H         1 UNK         0.0769 
    128 H128       30.9539    0.9746  -12.8746 H         1 UNK         0.0769 
    129 H129       29.6691    0.0671  -12.0823 H         1 UNK         0.0769 
    130 H130       32.8210   -0.9353   -9.0431 H         1 UNK         0.2981 
    131 H131       30.8698   -2.6639   -7.9547 H         1 UNK         0.0541 
    132 H132       30.8692   -4.9854   -7.5835 H         1 UNK         0.3459 
    133 H133       31.7809   -6.0413   -8.6285 H         1 UNK         0.3459 
    134 H134       32.5680   -3.1173   -6.1933 H         1 UNK         0.0612 
    135 H135       33.8292   -2.4200   -7.1862 H         1 UNK         0.0612 
    136 H136       33.8762    0.1265   -4.5929 H         1 UNK         0.0624 
    137 H137       33.9442   -1.6144   -4.6486 H         1 UNK         0.0624 
@<TRIPOS>BOND
     1    1    2 1    
     2    1   72 1    
     3    1   73 1    
     4    1   74 1    
     5    2    3 2    
     6    2    4 am   BACKBONE|DICT|INTERRES
     7    4    5 1    
     8    4   75 1    
     9    5    6 1    
    10    5   35 1    
    11    5   76 1    
    12    6    7 1    
    13    6   77 1    
    14    6   78 1    
    15    7    8 1    
    16    8    9 1    
    17    8   79 1    
    18    8   80 1    
    19    9   10 ar   
    20    9   14 ar   
    21   10   11 ar   
    22   10   81 1    
    23   11   12 ar   
    24   11   71 1    
    25   12   13 ar   
    26   12   82 1    
    27   13   14 ar   
    28   13   15 1    
    29   14   83 1    
    30   15   16 1    
    31   15   84 1    
    32   15   85 1    
    33   16   17 1    
    34   17   18 1    
    35   17   86 1    
    36   17   87 1    
    37   18   19 1    
    38   18   37 1    
    39   18   88 1    
    40   19   20 am   BACKBONE|DICT|INTERRES
    41   19   89 1    
    42   20   21 2    
    43   20   22 1    
    44   22   23 1    
    45   22   24 1    
    46   22   90 1    
    47   23   91 1    
    48   23   92 1    
    49   23   93 1    
    50   24   25 am   BACKBONE|DICT|INTERRES
    51   24   94 1    
    52   25   26 2    
    53   25   27 1    
    54   27   28 1    
    55   27   29 1    
    56   27   95 1    
    57   28   96 1    
    58   28   97 1    
    59   28   98 1    
    60   29   30 am   BACKBONE|DICT|INTERRES
    61   29   99 1    
    62   30   31 2    
    63   30   32 1    
    64   32   33 1    
    65   32   34 1    
    66   32  100 1    
    67   33  101 1    
    68   33  102 1    
    69   33  103 1    
    70   34   35 am   BACKBONE|DICT|INTERRES
    71   34  104 1    
    72   35   36 2    
    73   37   38 2    
    74   37   39 am   BACKBONE|DICT|INTERRES
    75   39   40 1    
    76   39  105 1    
    77   40   41 1    
    78   40   42 1    
    79   40  106 1    
    80   41  107 1    
    81   41  108 1    
    82   41  109 1    
    83   42   43 2    
    84   42   44 am   BACKBONE|DICT|INTERRES
    85   44   45 1    
    86   44  110 1    
    87   45   46 1    
    88   45   47 1    
    89   45  111 1    
    90   46  112 1    
    91   46  113 1    
    92   46  114 1    
    93   47   48 2    
    94   47   49 am   BACKBONE|DICT|INTERRES
    95   49   50 1    
    96   49  115 1    
    97   50   51 1    
    98   50   52 1    
    99   50  116 1    
   100   51  117 1    
   101   51  118 1    
   102   51  119 1    
   103   52   53 2    
   104   52   54 am   BACKBONE|DICT|INTERRES
   105   54   55 1    
   106   54  120 1    
   107   55   56 1    
   108   55   57 1    
   109   55  121 1    
   110   56  122 1    
   111   56  123 1    
   112   56  124 1    
   113   57   58 2    
   114   57   59 am   BACKBONE|DICT|INTERRES
   115   59   60 1    
   116   59  125 1    
   117   60   61 1    
   118   60   62 1    
   119   60  126 1    
   120   61  127 1    
   121   61  128 1    
   122   61  129 1    
   123   62   63 2    
   124   62   64 am   BACKBONE|DICT|INTERRES
   125   64   65 1    
   126   64  130 1    
   127   65   66 1    
   128   65   69 1    
   129   65  131 1    
   130   66   67 am   BACKBONE|DICT|INTERRES
   131   66   68 2    
   132   67  132 1    
   133   67  133 1    
   134   69   70 1    
   135   69  134 1    
   136   69  135 1    
   137   70   71 1    
   138   71  136 1    
   139   71  137 1    
@<TRIPOS>SUBSTRUCTURE
     1 UNK         1 GROUP             0       ****    0 ROOT    
