@<TRIPOS>MOLECULE
3R137
137   139    1
SMALL
USER_CHARGES


@<TRIPOS>ATOM
      1 CA         28.9384   -6.2192   -2.2374 C.3       0 UNK        -0.2020 
      2 C          28.1785   -5.4065   -1.2008 C.2       0 UNK         0.4855 
      3 O          27.2428   -5.9188   -0.5866 O.2       0 UNK        -0.5197 
      4 N          28.5770   -4.1438   -0.9967 N.am      1 UNK        -0.4892 
      5 CA         27.9793   -3.2160   -0.0276 C.3       1 UNK         0.0835 
      6 C6         28.9478   -2.0632    0.3418 C.3       12 UNK        -0.0855 
      7 S7         29.3484   -0.9091   -1.0197 S.3       12 UNK        -0.2931 
      8 C8         31.1110   -1.2715   -1.3646 C.3       12 UNK         0.0378 
      9 C9         31.3887   -2.2743   -2.4894 C.ar      12 UNK        -0.0802 
     10 C10        32.7159   -2.6255   -2.7523 C.ar      12 UNK        -0.0944 
     11 C11        33.0345   -3.4829   -3.8091 C.ar      12 UNK        -0.0787 
     12 C12        32.0114   -4.0042   -4.6050 C.ar      12 UNK        -0.0862 
     13 C13        30.6773   -3.6633   -4.3707 C.ar      12 UNK        -0.0733 
     14 C14        30.3797   -2.8074   -3.3008 C.ar      12 UNK        -0.0832 
     15 C15        29.6093   -4.2232   -5.3186 C.3       12 UNK         0.0240 
     16 S16        27.9251   -3.5324   -5.1376 S.3       12 UNK        -0.2522 
     17 C17        28.2361   -1.7588   -5.4366 C.3       12 UNK        -0.0967 
     18 CA         27.4443   -1.1751   -6.6246 C.3       5 UNK         0.0660 
     19 N          25.9968   -1.3439   -6.4856 N.am      5 UNK        -0.4015 
     20 C          25.1085   -1.0934   -7.4594 C.2       4 UNK         0.4946 
     21 O          25.4223   -0.7356   -8.5944 O.2       4 UNK        -0.5353 
     22 CA         23.6169   -1.2169   -7.1013 C.3       4 UNK         0.0277 
     23 CB         23.1275   -2.6551   -7.3331 C.3       4 UNK        -0.1981 
     24 N          23.3192   -0.8155   -5.7246 N.am      4 UNK        -0.4209 
     25 C          23.5279    0.4094   -5.2189 C.2       3 UNK         0.4942 
     26 O          23.9198    1.3655   -5.8876 O.2       3 UNK        -0.5208 
     27 CA         23.3235    0.5797   -3.7015 C.3       3 UNK         0.0250 
     28 CB         21.9034    1.0855   -3.4038 C.3       3 UNK        -0.1990 
     29 N          23.5806   -0.6477   -2.9346 N.am      3 UNK        -0.4232 
     30 C          24.7657   -1.2726   -2.8786 C.2       2 UNK         0.4993 
     31 O          25.7757   -0.8641   -3.4544 O.2       2 UNK        -0.5286 
     32 CA         24.7926   -2.6223   -2.1504 C.3       2 UNK         0.0209 
     33 CB         24.3561   -3.7414   -3.1121 C.3       2 UNK        -0.1931 
     34 N          26.1347   -2.9367   -1.6586 N.am      2 UNK        -0.4546 
     35 C          26.5629   -2.7166   -0.4080 C.2       1 UNK         0.5154 
     36 O          25.8716   -2.1711    0.4549 O.2       1 UNK        -0.5181 
     37 C          27.8119    0.3076   -6.7927 C.2       5 UNK         0.5014 
     38 O          28.6376    0.6287   -7.6459 O.2       5 UNK        -0.5248 
     39 N          27.1828    1.1793   -5.9900 N.am      6 UNK        -0.4434 
     40 CA         27.3533    2.6314   -6.0527 C.3       6 UNK         0.0363 
     41 CB         26.6871    3.2905   -4.8346 C.3       6 UNK        -0.1936 
     42 C          26.8179    3.2231   -7.3661 C.2       6 UNK         0.5081 
     43 O          27.4749    4.0864   -7.9463 O.2       6 UNK        -0.5248 
     44 N          25.6682    2.7167   -7.8361 N.am      7 UNK        -0.4718 
     45 CA         25.0723    3.0629   -9.1303 C.3       7 UNK         0.0273 
     46 CB         23.6690    2.4453   -9.2338 C.3       7 UNK        -0.1935 
     47 C          25.9464    2.6402  -10.3253 C.2       7 UNK         0.5018 
     48 O          26.0818    3.4104  -11.2765 O.2       7 UNK        -0.5186 
     49 N          26.5452    1.4432  -10.2439 N.am      8 UNK        -0.4240 
     50 CA         27.5013    0.9199  -11.2254 C.3       8 UNK         0.0235 
     51 CB         27.6182   -0.6026  -11.0411 C.3       8 UNK        -0.2000 
     52 C          28.8975    1.5681  -11.1427 C.2       8 UNK         0.4941 
     53 O          29.6772    1.4159  -12.0839 O.2       8 UNK        -0.5273 
     54 N          29.1958    2.2412  -10.0210 N.am      9 UNK        -0.4262 
     55 CA         30.4944    2.7938   -9.6166 C.3       9 UNK         0.0264 
     56 CB         30.9362    3.9341  -10.5582 C.3       9 UNK        -0.1955 
     57 C          31.5692    1.7019   -9.4328 C.2       9 UNK         0.5031 
     58 O          32.7357    1.9161   -9.7727 O.2       9 UNK        -0.5390 
     59 N          31.1574    0.5442   -8.8982 N.am      10 UNK        -0.4204 
     60 CA         32.0236   -0.5994   -8.6172 C.3       10 UNK         0.0237 
     61 CB         31.1617   -1.8516   -8.3893 C.3       10 UNK        -0.1985 
     62 C          32.9171   -0.3177   -7.4002 C.2       10 UNK         0.4970 
     63 O          32.4204    0.1762   -6.3857 O.2       10 UNK        -0.4914 
     64 N          34.2102   -0.6385   -7.5359 N.am      11 UNK        -0.4285 
     65 CA         35.2684   -0.4344   -6.5282 C.3       11 UNK         0.1007 
     66 C          35.5612    1.0593   -6.1808 C.2       11 UNK         0.5703 
     67 N          35.1358    2.0239   -6.9895 N.am      11 UNK        -0.7361 
     68 O          36.2187    1.3529   -5.1847 O.2       11 UNK        -0.4986 
     69 C69        35.0873   -1.3282   -5.2659 C.3       12 UNK        -0.0947 
     70 S70        35.0569   -3.1065   -5.6748 S.3       12 UNK        -0.2240 
     71 C71        34.4851   -3.8345   -4.1061 C.3       12 UNK         0.0194 
     72 H72        29.1451   -7.2185   -1.8553 H         1 UNK         0.0906 
     73 H73        29.8910   -5.7580   -2.4964 H         1 UNK         0.0906 
     74 H74        28.3437   -6.3174   -3.1451 H         1 UNK         0.0906 
     75 H75        29.3659   -3.7803   -1.5132 H         1 UNK         0.3140 
     76 H76        27.8295   -3.7901    0.8900 H         1 UNK         0.1085 
     77 H77        29.8682   -2.4834    0.7491 H         1 UNK         0.0836 
     78 H78        28.5239   -1.4741    1.1575 H         1 UNK         0.0836 
     79 H79        31.5853   -0.3288   -1.6414 H         1 UNK         0.0731 
     80 H80        31.6088   -1.5978   -0.4506 H         1 UNK         0.0731 
     81 H81        33.5084   -2.2099   -2.1445 H         1 UNK         0.1312 
     82 H82        32.2619   -4.6586   -5.4291 H         1 UNK         0.1406 
     83 H83        29.3565   -2.5256   -3.1182 H         1 UNK         0.1631 
     84 H84        29.5521   -5.3033   -5.1805 H         1 UNK         0.0717 
     85 H85        29.9293   -4.0630   -6.3494 H         1 UNK         0.0717 
     86 H86        28.0101   -1.2187   -4.5166 H         1 UNK         0.0934 
     87 H87        29.3034   -1.6028   -5.5995 H         1 UNK         0.0934 
     88 H88        27.7542   -1.6986   -7.5317 H         1 UNK         0.0739 
     89 H89        25.6695   -1.5850   -5.5595 H         1 UNK         0.3093 
     90 H90        23.0616   -0.5533   -7.7671 H         1 UNK         0.0818 
     91 H91        23.3195   -2.9702   -8.3599 H         1 UNK         0.0819 
     92 H92        23.6297   -3.3660   -6.6754 H         1 UNK         0.0819 
     93 H93        22.0537   -2.7417   -7.1660 H         1 UNK         0.0819 
     94 H94        22.9764   -1.5337   -5.1044 H         1 UNK         0.3041 
     95 H95        24.0346    1.3364   -3.3629 H         1 UNK         0.0784 
     96 H96        21.6979    2.0101   -3.9455 H         1 UNK         0.0793 
     97 H97        21.1441    0.3599   -3.6983 H         1 UNK         0.0793 
     98 H98        21.7720    1.2990   -2.3428 H         1 UNK         0.0793 
     99 H99        22.7917   -1.0478   -2.4462 H         1 UNK         0.3024 
    100 H100       24.0908   -2.5854   -1.3138 H         1 UNK         0.1171 
    101 H101       23.3379   -3.5827   -3.4693 H         1 UNK         0.0786 
    102 H102       25.0047   -3.8010   -3.9873 H         1 UNK         0.0786 
    103 H103       24.3744   -4.7138   -2.6191 H         1 UNK         0.0786 
    104 H104       26.7808   -3.3341   -2.3245 H         1 UNK         0.2977 
    105 H105       26.5140    0.8246   -5.3194 H         1 UNK         0.3127 
    106 H106       28.4243    2.8413   -6.0077 H         1 UNK         0.0770 
    107 H107       25.6097    3.1251   -4.8191 H         1 UNK         0.0814 
    108 H108       26.8489    4.3692   -4.8415 H         1 UNK         0.0814 
    109 H109       27.0991    2.9074   -3.9009 H         1 UNK         0.0814 
    110 H110       25.1572    2.0572   -7.2551 H         1 UNK         0.2983 
    111 H111       24.9699    4.1497   -9.1658 H         1 UNK         0.0947 
    112 H112       23.1822    2.7383  -10.1649 H         1 UNK         0.0806 
    113 H113       23.0289    2.7739   -8.4146 H         1 UNK         0.0806 
    114 H114       23.7047    1.3561   -9.2137 H         1 UNK         0.0806 
    115 H115       26.3152    0.8339   -9.4636 H         1 UNK         0.3000 
    116 H116       27.1094    1.1152  -12.2258 H         1 UNK         0.0850 
    117 H117       28.2964   -1.0372  -11.7767 H         1 UNK         0.0810 
    118 H118       26.6517   -1.0923  -11.1624 H         1 UNK         0.0810 
    119 H119       28.0006   -0.8591  -10.0523 H         1 UNK         0.0810 
    120 H120       28.4846    2.2629   -9.3009 H         1 UNK         0.3040 
    121 H121       30.3370    3.2278   -8.6279 H         1 UNK         0.0766 
    122 H122       31.1777    3.5669  -11.5560 H         1 UNK         0.0812 
    123 H123       31.8258    4.4342  -10.1735 H         1 UNK         0.0812 
    124 H124       30.1570    4.6899  -10.6569 H         1 UNK         0.0812 
    125 H125       30.2022    0.4966   -8.5443 H         1 UNK         0.3205 
    126 H126       32.6521   -0.7725   -9.4935 H         1 UNK         0.0754 
    127 H127       31.7846   -2.7248   -8.1902 H         1 UNK         0.0769 
    128 H128       30.5504   -2.0778   -9.2632 H         1 UNK         0.0769 
    129 H129       30.4947   -1.7272   -7.5381 H         1 UNK         0.0769 
    130 H130       34.5230   -1.0304   -8.4121 H         1 UNK         0.2981 
    131 H131       36.1850   -0.7670   -7.0162 H         1 UNK         0.0541 
    132 H132       35.3435    2.9833   -6.7624 H         1 UNK         0.3459 
    133 H133       34.5974    1.8050   -7.8141 H         1 UNK         0.3459 
    134 H134       34.1718   -1.0585   -4.7384 H         1 UNK         0.0612 
    135 H135       35.9051   -1.1749   -4.5599 H         1 UNK         0.0612 
    136 H136       34.5847   -4.9191   -4.1649 H         1 UNK         0.0624 
    137 H137       35.1422   -3.5083   -3.2984 H         1 UNK         0.0624 
@<TRIPOS>BOND
     1    1    2 1    
     2    1   72 1    
     3    1   73 1    
     4    1   74 1    
     5    2    3 2    
     6    2    4 am   BACKBONE|DICT|INTERRES
     7    4    5 1    
     8    4   75 1    
     9    5    6 1    
    10    5   35 1    
    11    5   76 1    
    12    6    7 1    
    13    6   77 1    
    14    6   78 1    
    15    7    8 1    
    16    8    9 1    
    17    8   79 1    
    18    8   80 1    
    19    9   10 ar   
    20    9   14 ar   
    21   10   11 ar   
    22   10   81 1    
    23   11   12 ar   
    24   11   71 1    
    25   12   13 ar   
    26   12   82 1    
    27   13   14 ar   
    28   13   15 1    
    29   14   83 1    
    30   15   16 1    
    31   15   84 1    
    32   15   85 1    
    33   16   17 1    
    34   17   18 1    
    35   17   86 1    
    36   17   87 1    
    37   18   19 1    
    38   18   37 1    
    39   18   88 1    
    40   19   20 am   BACKBONE|DICT|INTERRES
    41   19   89 1    
    42   20   21 2    
    43   20   22 1    
    44   22   23 1    
    45   22   24 1    
    46   22   90 1    
    47   23   91 1    
    48   23   92 1    
    49   23   93 1    
    50   24   25 am   BACKBONE|DICT|INTERRES
    51   24   94 1    
    52   25   26 2    
    53   25   27 1    
    54   27   28 1    
    55   27   29 1    
    56   27   95 1    
    57   28   96 1    
    58   28   97 1    
    59   28   98 1    
    60   29   30 am   BACKBONE|DICT|INTERRES
    61   29   99 1    
    62   30   31 2    
    63   30   32 1    
    64   32   33 1    
    65   32   34 1    
    66   32  100 1    
    67   33  101 1    
    68   33  102 1    
    69   33  103 1    
    70   34   35 am   BACKBONE|DICT|INTERRES
    71   34  104 1    
    72   35   36 2    
    73   37   38 2    
    74   37   39 am   BACKBONE|DICT|INTERRES
    75   39   40 1    
    76   39  105 1    
    77   40   41 1    
    78   40   42 1    
    79   40  106 1    
    80   41  107 1    
    81   41  108 1    
    82   41  109 1    
    83   42   43 2    
    84   42   44 am   BACKBONE|DICT|INTERRES
    85   44   45 1    
    86   44  110 1    
    87   45   46 1    
    88   45   47 1    
    89   45  111 1    
    90   46  112 1    
    91   46  113 1    
    92   46  114 1    
    93   47   48 2    
    94   47   49 am   BACKBONE|DICT|INTERRES
    95   49   50 1    
    96   49  115 1    
    97   50   51 1    
    98   50   52 1    
    99   50  116 1    
   100   51  117 1    
   101   51  118 1    
   102   51  119 1    
   103   52   53 2    
   104   52   54 am   BACKBONE|DICT|INTERRES
   105   54   55 1    
   106   54  120 1    
   107   55   56 1    
   108   55   57 1    
   109   55  121 1    
   110   56  122 1    
   111   56  123 1    
   112   56  124 1    
   113   57   58 2    
   114   57   59 am   BACKBONE|DICT|INTERRES
   115   59   60 1    
   116   59  125 1    
   117   60   61 1    
   118   60   62 1    
   119   60  126 1    
   120   61  127 1    
   121   61  128 1    
   122   61  129 1    
   123   62   63 2    
   124   62   64 am   BACKBONE|DICT|INTERRES
   125   64   65 1    
   126   64  130 1    
   127   65   66 1    
   128   65   69 1    
   129   65  131 1    
   130   66   67 am   BACKBONE|DICT|INTERRES
   131   66   68 2    
   132   67  132 1    
   133   67  133 1    
   134   69   70 1    
   135   69  134 1    
   136   69  135 1    
   137   70   71 1    
   138   71  136 1    
   139   71  137 1    
@<TRIPOS>SUBSTRUCTURE
     1 UNK         1 GROUP             0       ****    0 ROOT    
