@<TRIPOS>MOLECULE
3R137
137   139    1
SMALL
USER_CHARGES


@<TRIPOS>ATOM
      1 CA         24.2988   -4.7913   -6.4263 C.3       0 UNK        -0.2020 
      2 C          24.4514   -4.2390   -5.0178 C.2       0 UNK         0.4855 
      3 O          24.5632   -3.0251   -4.8540 O.2       0 UNK        -0.5197 
      4 N          24.4307   -5.1252   -4.0090 N.am      1 UNK        -0.4892 
      5 CA         24.6331   -4.8810   -2.5671 C.3       1 UNK         0.0835 
      6 C6         26.1246   -4.9306   -2.1318 C.3       12 UNK        -0.0855 
      7 S7         27.2249   -3.6748   -2.8789 S.3       12 UNK        -0.2931 
      8 C8         28.3561   -4.7388   -3.8348 C.3       12 UNK         0.0378 
      9 C9         29.6593   -4.0195   -4.1399 C.ar      12 UNK        -0.0802 
     10 C10        30.0563   -3.7714   -5.4568 C.ar      12 UNK        -0.0944 
     11 C11        31.2542   -3.0974   -5.7186 C.ar      12 UNK        -0.0787 
     12 C12        32.0458   -2.6534   -4.6535 C.ar      12 UNK        -0.0862 
     13 C13        31.6465   -2.8823   -3.3333 C.ar      12 UNK        -0.0733 
     14 C14        30.4729   -3.5978   -3.0864 C.ar      12 UNK        -0.0832 
     15 C15        32.4366   -2.3057   -2.1678 C.3       12 UNK         0.0240 
     16 S16        31.4068   -1.1878   -1.1548 S.3       12 UNK        -0.2522 
     17 C17        31.0777    0.1844   -2.3149 C.3       12 UNK        -0.0967 
     18 CA         29.8161   -0.0125   -3.2097 C.3       5 UNK         0.0660 
     19 N          28.5813   -0.3470   -2.4848 N.am      5 UNK        -0.4015 
     20 C          27.9568    0.4205   -1.5819 C.2       4 UNK         0.4946 
     21 O          28.3622    1.5254   -1.2144 O.2       4 UNK        -0.5353 
     22 CA         26.6427   -0.1538   -1.0143 C.3       4 UNK         0.0277 
     23 CB         26.1306    0.6271    0.2145 C.3       4 UNK        -0.1981 
     24 N          25.5830   -0.2617   -2.0271 N.am      4 UNK        -0.4209 
     25 C          25.0769    0.7227   -2.7914 C.2       3 UNK         0.4942 
     26 O          25.4649    1.8897   -2.7602 O.2       3 UNK        -0.5208 
     27 CA         23.9360    0.3630   -3.7611 C.3       3 UNK         0.0250 
     28 CB         24.4612    0.2508   -5.1996 C.3       3 UNK        -0.1990 
     29 N          23.2459   -0.8760   -3.4019 N.am      3 UNK        -0.4232 
     30 C          22.3105   -0.9628   -2.4439 C.2       2 UNK         0.4993 
     31 O          21.8931    0.0074   -1.8101 O.2       2 UNK        -0.5286 
     32 CA         21.7410   -2.3581   -2.1225 C.3       2 UNK         0.0209 
     33 CB         20.3784   -2.5527   -2.8077 C.3       2 UNK        -0.1931 
     34 N          22.6245   -3.4680   -2.4917 N.am      2 UNK        -0.4546 
     35 C          23.8437   -3.6875   -1.9787 C.2       1 UNK         0.5154 
     36 O          24.3398   -2.9820   -1.0979 O.2       1 UNK        -0.5181 
     37 C          29.6159    1.1456   -4.2109 C.2       5 UNK         0.5014 
     38 O          30.4921    1.9997   -4.3556 O.2       5 UNK        -0.5248 
     39 N          28.4776    1.1343   -4.9138 N.am      6 UNK        -0.4434 
     40 CA         28.1564    2.0602   -6.0016 C.3       6 UNK         0.0363 
     41 CB         27.4745    3.3216   -5.4372 C.3       6 UNK        -0.1936 
     42 C          27.3168    1.3572   -7.0809 C.2       6 UNK         0.5081 
     43 O          26.5072    2.0058   -7.7440 O.2       6 UNK        -0.5248 
     44 N          27.4974    0.0349   -7.2258 N.am      7 UNK        -0.4718 
     45 CA         26.7554   -0.8086   -8.1710 C.3       7 UNK         0.0273 
     46 CB         26.9688   -2.2846   -7.7973 C.3       7 UNK        -0.1935 
     47 C          27.1334   -0.5560   -9.6431 C.2       7 UNK         0.5018 
     48 O          26.3299   -0.8351  -10.5339 O.2       7 UNK        -0.5186 
     49 N          28.3373   -0.0225   -9.8643 N.am      8 UNK        -0.4240 
     50 CA         28.8896    0.4132  -11.1385 C.3       8 UNK         0.0235 
     51 CB         29.5116   -0.7890  -11.8731 C.3       8 UNK        -0.2000 
     52 C          29.9469    1.4799  -10.8332 C.2       8 UNK         0.4941 
     53 O          30.4015    1.5778   -9.6897 O.2       8 UNK        -0.5273 
     54 N          30.3693    2.2271  -11.8622 N.am      9 UNK        -0.4262 
     55 CA         31.4283    3.2437  -11.7688 C.3       9 UNK         0.0264 
     56 CB         31.5589    3.9727  -13.1159 C.3       9 UNK        -0.1955 
     57 C          32.7932    2.6801  -11.3253 C.2       9 UNK         0.5031 
     58 O          33.5704    3.3950  -10.6911 O.2       9 UNK        -0.5390 
     59 N          33.0379    1.3978  -11.6297 N.am      10 UNK        -0.4204 
     60 CA         34.2062    0.6273  -11.2020 C.3       10 UNK         0.0237 
     61 CB         34.2287   -0.7056  -11.9689 C.3       10 UNK        -0.1985 
     62 C          34.2745    0.3702   -9.6835 C.2       10 UNK         0.4970 
     63 O          35.3596    0.0574   -9.1915 O.2       10 UNK        -0.4914 
     64 N          33.1456    0.4913   -8.9686 N.am      11 UNK        -0.4285 
     65 CA         33.0744    0.3146   -7.5093 C.3       11 UNK         0.1007 
     66 C          33.6757    1.4945   -6.6917 C.2       11 UNK         0.5703 
     67 N          33.9501    2.6497   -7.2889 N.am      11 UNK        -0.7361 
     68 O          33.9190    1.3481   -5.4965 O.2       11 UNK        -0.4986 
     69 C69        31.6395   -0.0194   -7.0224 C.3       12 UNK        -0.0947 
     70 S70        30.8637   -1.4188   -7.8989 S.3       12 UNK        -0.2240 
     71 C71        31.6938   -2.8562   -7.1543 C.3       12 UNK         0.0194 
     72 H72        23.5782   -4.1967   -6.9873 H         1 UNK         0.0906 
     73 H73        25.2543   -4.7502   -6.9479 H         1 UNK         0.0906 
     74 H74        23.9550   -5.8253   -6.4243 H         1 UNK         0.0906 
     75 H75        24.3010   -6.0996   -4.2456 H         1 UNK         0.3140 
     76 H76        24.1644   -5.7406   -2.0845 H         1 UNK         0.1085 
     77 H77        26.2056   -4.8400   -1.0469 H         1 UNK         0.0836 
     78 H78        26.5133   -5.9251   -2.3528 H         1 UNK         0.0836 
     79 H79        28.5917   -5.6413   -3.2693 H         1 UNK         0.0731 
     80 H80        27.8558   -5.0607   -4.7495 H         1 UNK         0.0731 
     81 H81        29.4368   -4.1016   -6.2795 H         1 UNK         0.1312 
     82 H82        32.9583   -2.1082   -4.8535 H         1 UNK         0.1406 
     83 H83        30.1605   -3.7767   -2.0661 H         1 UNK         0.1631 
     84 H84        33.3200   -1.7680   -2.5156 H         1 UNK         0.0717 
     85 H85        32.7959   -3.1234   -1.5416 H         1 UNK         0.0717 
     86 H86        30.9820    1.0991   -1.7275 H         1 UNK         0.0934 
     87 H87        31.9646    0.3250   -2.9364 H         1 UNK         0.0934 
     88 H88        30.0005   -0.8725   -3.8494 H         1 UNK         0.0739 
     89 H89        28.1810   -1.2513   -2.6999 H         1 UNK         0.3093 
     90 H90        26.8596   -1.1718   -0.6855 H         1 UNK         0.0818 
     91 H91        26.8861    0.6548    1.0006 H         1 UNK         0.0819 
     92 H92        25.8819    1.6594   -0.0340 H         1 UNK         0.0819 
     93 H93        25.2402    0.1601    0.6356 H         1 UNK         0.0819 
     94 H94        25.1731   -1.1846   -2.1164 H         1 UNK         0.3041 
     95 H95        23.2132    1.1816   -3.7345 H         1 UNK         0.0784 
     96 H96        23.6713   -0.0383   -5.8929 H         1 UNK         0.0793 
     97 H97        24.8507    1.2103   -5.5389 H         1 UNK         0.0793 
     98 H98        25.2640   -0.4825   -5.2829 H         1 UNK         0.0793 
     99 H99        23.5602   -1.7216   -3.8749 H         1 UNK         0.3024 
    100 H100       21.5931   -2.3991   -1.0410 H         1 UNK         0.1171 
    101 H101       20.4687   -2.5430   -3.8947 H         1 UNK         0.0786 
    102 H102       19.6849   -1.7570   -2.5313 H         1 UNK         0.0786 
    103 H103       19.9172   -3.4964   -2.5157 H         1 UNK         0.0786 
    104 H104       22.3049   -4.0805   -3.2284 H         1 UNK         0.2977 
    105 H105       27.7848    0.4274   -4.7125 H         1 UNK         0.3127 
    106 H106       29.0799    2.3658   -6.4984 H         1 UNK         0.0770 
    107 H107       26.5170    3.0859   -4.9728 H         1 UNK         0.0814 
    108 H108       27.2864    4.0532   -6.2240 H         1 UNK         0.0814 
    109 H109       28.0982    3.8085   -4.6875 H         1 UNK         0.0814 
    110 H110       28.2200   -0.4215   -6.6881 H         1 UNK         0.2983 
    111 H111       25.6923   -0.5803   -8.0657 H         1 UNK         0.0947 
    112 H112       26.3879   -2.9377   -8.4496 H         1 UNK         0.0806 
    113 H113       26.6521   -2.4850   -6.7732 H         1 UNK         0.0806 
    114 H114       28.0145   -2.5791   -7.8903 H         1 UNK         0.0806 
    115 H115       28.9259    0.2074   -9.0719 H         1 UNK         0.3000 
    116 H116       28.0994    0.8616  -11.7443 H         1 UNK         0.0850 
    117 H117       30.3157   -1.2424  -11.2912 H         1 UNK         0.0810 
    118 H118       28.7676   -1.5614  -12.0684 H         1 UNK         0.0810 
    119 H119       29.9277   -0.4939  -12.8369 H         1 UNK         0.0810 
    120 H120       29.9493    2.0909  -12.7713 H         1 UNK         0.3040 
    121 H121       31.1199    3.9709  -11.0145 H         1 UNK         0.0766 
    122 H122       30.6248    4.4594  -13.3969 H         1 UNK         0.0812 
    123 H123       31.8396    3.2912  -13.9200 H         1 UNK         0.0812 
    124 H124       32.3234    4.7496  -13.0660 H         1 UNK         0.0812 
    125 H125       32.3382    0.8999  -12.1595 H         1 UNK         0.3205 
    126 H126       35.0980    1.1960  -11.4737 H         1 UNK         0.0754 
    127 H127       35.1079   -1.2947  -11.7037 H         1 UNK         0.0769 
    128 H128       34.2642   -0.5443  -13.0466 H         1 UNK         0.0769 
    129 H129       33.3506   -1.3138  -11.7472 H         1 UNK         0.0769 
    130 H130       32.2829    0.7782   -9.4170 H         1 UNK         0.2981 
    131 H131       33.6972   -0.5469   -7.2635 H         1 UNK         0.0541 
    132 H132       34.3467    3.4013   -6.7479 H         1 UNK         0.3459 
    133 H133       33.7667    2.7771   -8.2735 H         1 UNK         0.3459 
    134 H134       30.9919    0.8486   -7.1531 H         1 UNK         0.0612 
    135 H135       31.6375   -0.2320   -5.9536 H         1 UNK         0.0612 
    136 H136       32.7753   -2.7295   -7.2130 H         1 UNK         0.0624 
    137 H137       31.4622   -3.7370   -7.7548 H         1 UNK         0.0624 
@<TRIPOS>BOND
     1    1    2 1    
     2    1   72 1    
     3    1   73 1    
     4    1   74 1    
     5    2    3 2    
     6    2    4 am   BACKBONE|DICT|INTERRES
     7    4    5 1    
     8    4   75 1    
     9    5    6 1    
    10    5   35 1    
    11    5   76 1    
    12    6    7 1    
    13    6   77 1    
    14    6   78 1    
    15    7    8 1    
    16    8    9 1    
    17    8   79 1    
    18    8   80 1    
    19    9   10 ar   
    20    9   14 ar   
    21   10   11 ar   
    22   10   81 1    
    23   11   12 ar   
    24   11   71 1    
    25   12   13 ar   
    26   12   82 1    
    27   13   14 ar   
    28   13   15 1    
    29   14   83 1    
    30   15   16 1    
    31   15   84 1    
    32   15   85 1    
    33   16   17 1    
    34   17   18 1    
    35   17   86 1    
    36   17   87 1    
    37   18   19 1    
    38   18   37 1    
    39   18   88 1    
    40   19   20 am   BACKBONE|DICT|INTERRES
    41   19   89 1    
    42   20   21 2    
    43   20   22 1    
    44   22   23 1    
    45   22   24 1    
    46   22   90 1    
    47   23   91 1    
    48   23   92 1    
    49   23   93 1    
    50   24   25 am   BACKBONE|DICT|INTERRES
    51   24   94 1    
    52   25   26 2    
    53   25   27 1    
    54   27   28 1    
    55   27   29 1    
    56   27   95 1    
    57   28   96 1    
    58   28   97 1    
    59   28   98 1    
    60   29   30 am   BACKBONE|DICT|INTERRES
    61   29   99 1    
    62   30   31 2    
    63   30   32 1    
    64   32   33 1    
    65   32   34 1    
    66   32  100 1    
    67   33  101 1    
    68   33  102 1    
    69   33  103 1    
    70   34   35 am   BACKBONE|DICT|INTERRES
    71   34  104 1    
    72   35   36 2    
    73   37   38 2    
    74   37   39 am   BACKBONE|DICT|INTERRES
    75   39   40 1    
    76   39  105 1    
    77   40   41 1    
    78   40   42 1    
    79   40  106 1    
    80   41  107 1    
    81   41  108 1    
    82   41  109 1    
    83   42   43 2    
    84   42   44 am   BACKBONE|DICT|INTERRES
    85   44   45 1    
    86   44  110 1    
    87   45   46 1    
    88   45   47 1    
    89   45  111 1    
    90   46  112 1    
    91   46  113 1    
    92   46  114 1    
    93   47   48 2    
    94   47   49 am   BACKBONE|DICT|INTERRES
    95   49   50 1    
    96   49  115 1    
    97   50   51 1    
    98   50   52 1    
    99   50  116 1    
   100   51  117 1    
   101   51  118 1    
   102   51  119 1    
   103   52   53 2    
   104   52   54 am   BACKBONE|DICT|INTERRES
   105   54   55 1    
   106   54  120 1    
   107   55   56 1    
   108   55   57 1    
   109   55  121 1    
   110   56  122 1    
   111   56  123 1    
   112   56  124 1    
   113   57   58 2    
   114   57   59 am   BACKBONE|DICT|INTERRES
   115   59   60 1    
   116   59  125 1    
   117   60   61 1    
   118   60   62 1    
   119   60  126 1    
   120   61  127 1    
   121   61  128 1    
   122   61  129 1    
   123   62   63 2    
   124   62   64 am   BACKBONE|DICT|INTERRES
   125   64   65 1    
   126   64  130 1    
   127   65   66 1    
   128   65   69 1    
   129   65  131 1    
   130   66   67 am   BACKBONE|DICT|INTERRES
   131   66   68 2    
   132   67  132 1    
   133   67  133 1    
   134   69   70 1    
   135   69  134 1    
   136   69  135 1    
   137   70   71 1    
   138   71  136 1    
   139   71  137 1    
@<TRIPOS>SUBSTRUCTURE
     1 UNK         1 GROUP             0       ****    0 ROOT    
