@<TRIPOS>MOLECULE
3R137
137   139    1
SMALL
USER_CHARGES


@<TRIPOS>ATOM
      1 CA         28.7912   -2.8574    3.5952 C.3       0 UNK        -0.2020 
      2 C          28.8480   -1.9756    2.3568 C.2       0 UNK         0.4855 
      3 O          28.7873   -0.7510    2.4731 O.2       0 UNK        -0.5197 
      4 N          28.9745   -2.5870    1.1733 N.am      1 UNK        -0.4892 
      5 CA         28.9612   -1.9141   -0.1289 C.3       1 UNK         0.0835 
      6 C6         29.5618   -2.8013   -1.2512 C.3       12 UNK        -0.0855 
      7 S7         28.9590   -4.5296   -1.2714 S.3       12 UNK        -0.2931 
      8 C8         30.3566   -5.3828   -2.0724 C.3       12 UNK         0.0378 
      9 C9         30.5097   -4.9359   -3.5176 C.ar      12 UNK        -0.0802 
     10 C10        31.4864   -3.9999   -3.8723 C.ar      12 UNK        -0.0944 
     11 C11        31.5763   -3.5340   -5.1871 C.ar      12 UNK        -0.0787 
     12 C12        30.6834   -4.0150   -6.1489 C.ar      12 UNK        -0.0862 
     13 C13        29.7023   -4.9503   -5.8053 C.ar      12 UNK        -0.0733 
     14 C14        29.6363   -5.4249   -4.4924 C.ar      12 UNK        -0.0832 
     15 C15        28.6625   -5.3803   -6.8331 C.3       12 UNK         0.0240 
     16 S16        26.9514   -4.9862   -6.3181 S.3       12 UNK        -0.2522 
     17 C17        27.0837   -3.2405   -5.8023 C.3       12 UNK        -0.0967 
     18 CA         26.7675   -2.2568   -6.9594 C.3       5 UNK         0.0660 
     19 N          25.3705   -1.8154   -6.9093 N.am      5 UNK        -0.4015 
     20 C          24.7728   -0.9047   -7.6925 C.2       4 UNK         0.4946 
     21 O          25.3316   -0.3067   -8.6099 O.2       4 UNK        -0.5353 
     22 CA         23.3015   -0.5812   -7.3776 C.3       4 UNK         0.0277 
     23 CB         22.3656   -1.4341   -8.2484 C.3       4 UNK        -0.1981 
     24 N          22.9762   -0.7805   -5.9616 N.am      4 UNK        -0.4209 
     25 C          23.4484   -0.0132   -4.9690 C.2       3 UNK         0.4942 
     26 O          24.0769    1.0307   -5.1627 O.2       3 UNK        -0.5208 
     27 CA         23.1790   -0.4957   -3.5274 C.3       3 UNK         0.0250 
     28 CB         23.0697   -2.0337   -3.4032 C.3       3 UNK        -0.1990 
     29 N          24.1659    0.0158   -2.5676 N.am      3 UNK        -0.4232 
     30 C          25.4967   -0.1612   -2.5871 C.2       2 UNK         0.4993 
     31 O          26.0978   -0.8060   -3.4528 O.2       2 UNK        -0.5286 
     32 CA         26.3006    0.5519   -1.4786 C.3       2 UNK         0.0209 
     33 CB         25.4636    0.9453   -0.2372 C.3       2 UNK        -0.1931 
     34 N          27.5019   -0.1936   -1.0796 N.am      2 UNK        -0.4546 
     35 C          27.5494   -1.3924   -0.4783 C.2       1 UNK         0.5154 
     36 O          26.5551   -2.0630   -0.1849 O.2       1 UNK        -0.5181 
     37 C          27.7656   -1.0846   -6.9609 C.2       5 UNK         0.5014 
     38 O          28.6147   -1.0174   -7.8517 O.2       5 UNK        -0.5248 
     39 N          27.6216   -0.1738   -5.9868 N.am      6 UNK        -0.4434 
     40 CA         28.4641    1.0148   -5.8331 C.3       6 UNK         0.0363 
     41 CB         28.0803    1.7526   -4.5438 C.3       6 UNK        -0.1936 
     42 C          28.4335    1.9751   -7.0327 C.2       6 UNK         0.5081 
     43 O          29.4443    2.6264   -7.2961 O.2       6 UNK        -0.5248 
     44 N          27.2971    2.0386   -7.7382 N.am      7 UNK        -0.4718 
     45 CA         27.1385    2.8151   -8.9660 C.3       7 UNK         0.0273 
     46 CB         25.6602    3.1961   -9.1507 C.3       7 UNK        -0.1935 
     47 C          27.6670    2.0463  -10.1859 C.2       7 UNK         0.5018 
     48 O          28.4180    2.6171  -10.9760 O.2       7 UNK        -0.5186 
     49 N          27.2762    0.7696  -10.3115 N.am      8 UNK        -0.4240 
     50 CA         27.6066   -0.1141  -11.4326 C.3       8 UNK         0.0235 
     51 CB         26.8139   -1.4256  -11.3055 C.3       8 UNK        -0.2000 
     52 C          29.1087   -0.4028  -11.5685 C.2       8 UNK         0.4941 
     53 O          29.6395   -0.3203  -12.6769 O.2       8 UNK        -0.5273 
     54 N          29.7677   -0.7207  -10.4464 N.am      9 UNK        -0.4262 
     55 CA         31.2121   -0.9635  -10.3880 C.3       9 UNK         0.0264 
     56 CB         31.5012   -1.9733   -9.2676 C.3       9 UNK        -0.1955 
     57 C          32.0250    0.3246  -10.1712 C.2       9 UNK         0.5031 
     58 O          33.2523    0.2735  -10.2595 O.2       9 UNK        -0.5390 
     59 N          31.3409    1.4373   -9.8616 N.am      10 UNK        -0.4204 
     60 CA         31.8791    2.7616   -9.5239 C.3       10 UNK         0.0237 
     61 CB         32.6265    3.3784  -10.7257 C.3       10 UNK        -0.1985 
     62 C          32.7160    2.7882   -8.2262 C.2       10 UNK         0.4970 
     63 O          33.4806    3.7331   -8.0221 O.2       10 UNK        -0.4914 
     64 N          32.5572    1.7701   -7.3690 N.am      11 UNK        -0.4285 
     65 CA         33.2258    1.6552   -6.0659 C.3       11 UNK         0.1007 
     66 C          32.5774    2.4975   -4.9283 C.2       11 UNK         0.5703 
     67 N          31.4177    3.1134   -5.1284 N.am      11 UNK        -0.7361 
     68 O          33.1531    2.6143   -3.8490 O.2       11 UNK        -0.4986 
     69 C69        33.4622    0.1732   -5.6672 C.3       12 UNK        -0.0947 
     70 S70        31.9413   -0.8103   -5.4472 S.3       12 UNK        -0.2240 
     71 C71        32.6209   -2.4933   -5.5604 C.3       12 UNK         0.0194 
     72 H72        28.8701   -3.9156    3.3464 H         1 UNK         0.0906 
     73 H73        29.6072   -2.6068    4.2726 H         1 UNK         0.0906 
     74 H74        27.8503   -2.7025    4.1227 H         1 UNK         0.0906 
     75 H75        28.9795   -3.5966    1.1236 H         1 UNK         0.3140 
     76 H76        29.6092   -1.0391   -0.0353 H         1 UNK         0.1085 
     77 H77        29.3949   -2.3581   -2.2356 H         1 UNK         0.0836 
     78 H78        30.6452   -2.8257   -1.1248 H         1 UNK         0.0836 
     79 H79        31.2726   -5.2020   -1.5077 H         1 UNK         0.0731 
     80 H80        30.1834   -6.4595   -2.0385 H         1 UNK         0.0731 
     81 H81        32.1600   -3.6129   -3.1200 H         1 UNK         0.1312 
     82 H82        30.7309   -3.6347   -7.1580 H         1 UNK         0.1406 
     83 H83        28.8636   -6.1296   -4.2153 H         1 UNK         0.1631 
     84 H84        28.7455   -6.4550   -6.9999 H         1 UNK         0.0717 
     85 H85        28.8514   -4.9029   -7.7960 H         1 UNK         0.0717 
     86 H86        28.0651   -3.0614   -5.3622 H         1 UNK         0.0934 
     87 H87        26.4013   -3.0887   -4.9640 H         1 UNK         0.0934 
     88 H88        26.9000   -2.7657   -7.9163 H         1 UNK         0.0739 
     89 H89        24.8103   -2.2395   -6.1867 H         1 UNK         0.3093 
     90 H90        23.1361    0.4701   -7.6240 H         1 UNK         0.0818 
     91 H91        21.3210   -1.1665   -8.0885 H         1 UNK         0.0819 
     92 H92        22.5778   -1.2840   -9.3081 H         1 UNK         0.0819 
     93 H93        22.4762   -2.4995   -8.0424 H         1 UNK         0.0819 
     94 H94        22.4300   -1.5970   -5.7268 H         1 UNK         0.3041 
     95 H95        22.2192   -0.0660   -3.2371 H         1 UNK         0.0784 
     96 H96        22.2094   -2.4244   -3.9474 H         1 UNK         0.0793 
     97 H97        23.9613   -2.5373   -3.7790 H         1 UNK         0.0793 
     98 H98        22.9413   -2.3328   -2.3627 H         1 UNK         0.0793 
     99 H99        23.7883    0.5998   -1.8351 H         1 UNK         0.3024 
    100 H100       26.6563    1.4802   -1.9271 H         1 UNK         0.1171 
    101 H101       26.0928    1.3888    0.5348 H         1 UNK         0.0786 
    102 H102       24.9585    0.0857    0.2054 H         1 UNK         0.0786 
    103 H103       24.7038    1.6875   -0.4843 H         1 UNK         0.0786 
    104 H104       28.3775    0.2575   -1.3037 H         1 UNK         0.2977 
    105 H105       26.9209   -0.3327   -5.2675 H         1 UNK         0.3127 
    106 H106       29.4940    0.6730   -5.7310 H         1 UNK         0.0770 
    107 H107       27.0202    2.0096   -4.5275 H         1 UNK         0.0814 
    108 H108       28.6439    2.6795   -4.4335 H         1 UNK         0.0814 
    109 H109       28.2990    1.1387   -3.6714 H         1 UNK         0.0814 
    110 H110       26.5310    1.4327   -7.4759 H         1 UNK         0.2983 
    111 H111       27.7139    3.7400   -8.8792 H         1 UNK         0.0947 
    112 H112       25.5221    3.7901  -10.0551 H         1 UNK         0.0806 
    113 H113       25.2989    3.7930   -8.3132 H         1 UNK         0.0806 
    114 H114       25.0183    2.3187   -9.2363 H         1 UNK         0.0806 
    115 H115       26.6377    0.3876   -9.6137 H         1 UNK         0.3000 
    116 H116       27.2856    0.3881  -12.3477 H         1 UNK         0.0850 
    117 H117       27.0328   -2.0989  -12.1353 H         1 UNK         0.0810 
    118 H118       25.7396   -1.2405  -11.3125 H         1 UNK         0.0810 
    119 H119       27.0540   -1.9535  -10.3817 H         1 UNK         0.0810 
    120 H120       29.2566   -0.7871   -9.5656 H         1 UNK         0.3040 
    121 H121       31.5456   -1.4040  -11.3301 H         1 UNK         0.0766 
    122 H122       32.5640   -2.2134   -9.2176 H         1 UNK         0.0812 
    123 H123       31.2089   -1.5813   -8.2935 H         1 UNK         0.0812 
    124 H124       30.9645   -2.9074   -9.4326 H         1 UNK         0.0812 
    125 H125       30.3329    1.3661   -9.8337 H         1 UNK         0.3205 
    126 H126       31.0104    3.3917   -9.3287 H         1 UNK         0.0754 
    127 H127       32.8832    4.4211  -10.5348 H         1 UNK         0.0769 
    128 H128       32.0117    3.3585  -11.6257 H         1 UNK         0.0769 
    129 H129       33.5557    2.8503  -10.9410 H         1 UNK         0.0769 
    130 H130       31.8823    1.0528   -7.5848 H         1 UNK         0.2981 
    131 H131       34.2217    2.0859   -6.1859 H         1 UNK         0.0541 
    132 H132       30.9161    3.0110   -6.0038 H         1 UNK         0.3459 
    133 H133       31.0281    3.6715   -4.3868 H         1 UNK         0.3459 
    134 H134       34.0450    0.1143   -4.7463 H         1 UNK         0.0612 
    135 H135       34.0725   -0.3075   -6.4336 H         1 UNK         0.0612 
    136 H136       32.9841   -2.6709   -6.5737 H         1 UNK         0.0624 
    137 H137       33.4862   -2.5787   -4.9012 H         1 UNK         0.0624 
@<TRIPOS>BOND
     1    1    2 1    
     2    1   72 1    
     3    1   73 1    
     4    1   74 1    
     5    2    3 2    
     6    2    4 am   BACKBONE|DICT|INTERRES
     7    4    5 1    
     8    4   75 1    
     9    5    6 1    
    10    5   35 1    
    11    5   76 1    
    12    6    7 1    
    13    6   77 1    
    14    6   78 1    
    15    7    8 1    
    16    8    9 1    
    17    8   79 1    
    18    8   80 1    
    19    9   10 ar   
    20    9   14 ar   
    21   10   11 ar   
    22   10   81 1    
    23   11   12 ar   
    24   11   71 1    
    25   12   13 ar   
    26   12   82 1    
    27   13   14 ar   
    28   13   15 1    
    29   14   83 1    
    30   15   16 1    
    31   15   84 1    
    32   15   85 1    
    33   16   17 1    
    34   17   18 1    
    35   17   86 1    
    36   17   87 1    
    37   18   19 1    
    38   18   37 1    
    39   18   88 1    
    40   19   20 am   BACKBONE|DICT|INTERRES
    41   19   89 1    
    42   20   21 2    
    43   20   22 1    
    44   22   23 1    
    45   22   24 1    
    46   22   90 1    
    47   23   91 1    
    48   23   92 1    
    49   23   93 1    
    50   24   25 am   BACKBONE|DICT|INTERRES
    51   24   94 1    
    52   25   26 2    
    53   25   27 1    
    54   27   28 1    
    55   27   29 1    
    56   27   95 1    
    57   28   96 1    
    58   28   97 1    
    59   28   98 1    
    60   29   30 am   BACKBONE|DICT|INTERRES
    61   29   99 1    
    62   30   31 2    
    63   30   32 1    
    64   32   33 1    
    65   32   34 1    
    66   32  100 1    
    67   33  101 1    
    68   33  102 1    
    69   33  103 1    
    70   34   35 am   BACKBONE|DICT|INTERRES
    71   34  104 1    
    72   35   36 2    
    73   37   38 2    
    74   37   39 am   BACKBONE|DICT|INTERRES
    75   39   40 1    
    76   39  105 1    
    77   40   41 1    
    78   40   42 1    
    79   40  106 1    
    80   41  107 1    
    81   41  108 1    
    82   41  109 1    
    83   42   43 2    
    84   42   44 am   BACKBONE|DICT|INTERRES
    85   44   45 1    
    86   44  110 1    
    87   45   46 1    
    88   45   47 1    
    89   45  111 1    
    90   46  112 1    
    91   46  113 1    
    92   46  114 1    
    93   47   48 2    
    94   47   49 am   BACKBONE|DICT|INTERRES
    95   49   50 1    
    96   49  115 1    
    97   50   51 1    
    98   50   52 1    
    99   50  116 1    
   100   51  117 1    
   101   51  118 1    
   102   51  119 1    
   103   52   53 2    
   104   52   54 am   BACKBONE|DICT|INTERRES
   105   54   55 1    
   106   54  120 1    
   107   55   56 1    
   108   55   57 1    
   109   55  121 1    
   110   56  122 1    
   111   56  123 1    
   112   56  124 1    
   113   57   58 2    
   114   57   59 am   BACKBONE|DICT|INTERRES
   115   59   60 1    
   116   59  125 1    
   117   60   61 1    
   118   60   62 1    
   119   60  126 1    
   120   61  127 1    
   121   61  128 1    
   122   61  129 1    
   123   62   63 2    
   124   62   64 am   BACKBONE|DICT|INTERRES
   125   64   65 1    
   126   64  130 1    
   127   65   66 1    
   128   65   69 1    
   129   65  131 1    
   130   66   67 am   BACKBONE|DICT|INTERRES
   131   66   68 2    
   132   67  132 1    
   133   67  133 1    
   134   69   70 1    
   135   69  134 1    
   136   69  135 1    
   137   70   71 1    
   138   71  136 1    
   139   71  137 1    
@<TRIPOS>SUBSTRUCTURE
     1 UNK         1 GROUP             0       ****    0 ROOT    
