@<TRIPOS>MOLECULE
3R137
137   139    1
SMALL
USER_CHARGES


@<TRIPOS>ATOM
      1 CA         30.6964    1.1323   -1.6924 C.3       0 UNK        -0.2020 
      2 C          29.8507   -0.1071   -1.9429 C.2       0 UNK         0.4855 
      3 O          29.4155   -0.3268   -3.0717 O.2       0 UNK        -0.5197 
      4 N          29.6239   -0.9185   -0.9019 N.am      1 UNK        -0.4892 
      5 CA         28.8038   -2.1338   -0.9544 C.3       1 UNK         0.0835 
      6 C6         29.0050   -3.0352    0.2915 C.3       12 UNK        -0.0855 
      7 S7         30.7453   -3.4663    0.6281 S.3       12 UNK        -0.2931 
      8 C8         30.9101   -5.0694   -0.2206 C.3       12 UNK         0.0378 
      9 C9         31.0931   -4.8931   -1.7205 C.ar      12 UNK        -0.0802 
     10 C10        32.2872   -4.3568   -2.2114 C.ar      12 UNK        -0.0944 
     11 C11        32.4807   -4.1962   -3.5843 C.ar      12 UNK        -0.0787 
     12 C12        31.4725   -4.5841   -4.4717 C.ar      12 UNK        -0.0862 
     13 C13        30.2676   -5.1085   -3.9951 C.ar      12 UNK        -0.0733 
     14 C14        30.0867   -5.2716   -2.6167 C.ar      12 UNK        -0.0832 
     15 C15        29.1721   -5.5088   -4.9760 C.3       12 UNK         0.0240 
     16 S16        27.6726   -4.4882   -4.8054 S.3       12 UNK        -0.2522 
     17 C17        28.2665   -2.8172   -5.2423 C.3       12 UNK        -0.0967 
     18 CA         27.5921   -2.2111   -6.5031 C.3       5 UNK         0.0660 
     19 N          26.1303   -2.2922   -6.4657 N.am      5 UNK        -0.4015 
     20 C          25.3356   -2.2948   -7.5444 C.2       4 UNK         0.4946 
     21 O          25.7547   -2.3273   -8.7019 O.2       4 UNK        -0.5353 
     22 CA         23.8126   -2.2640   -7.3071 C.3       4 UNK         0.0277 
     23 CB         23.2291   -3.6833   -7.4023 C.3       4 UNK        -0.1981 
     24 N          23.4204   -1.6704   -6.0256 N.am      4 UNK        -0.4209 
     25 C          23.5598   -0.3752   -5.7077 C.2       3 UNK         0.4942 
     26 O          24.0074    0.4752   -6.4742 O.2       3 UNK        -0.5208 
     27 CA         23.2101    0.0235   -4.2618 C.3       3 UNK         0.0250 
     28 CB         21.7035    0.2939   -4.1239 C.3       3 UNK        -0.1990 
     29 N          23.6319   -0.9619   -3.2561 N.am      3 UNK        -0.4232 
     30 C          24.8851   -1.4174   -3.1190 C.2       2 UNK         0.4993 
     31 O          25.8130   -1.0708   -3.8522 O.2       2 UNK        -0.5286 
     32 CA         25.1234   -2.4858   -2.0402 C.3       2 UNK         0.0209 
     33 CB         24.5341   -3.8365   -2.4823 C.3       2 UNK        -0.1931 
     34 N          26.5526   -2.6646   -1.7698 N.am      2 UNK        -0.4546 
     35 C          27.3074   -1.7870   -1.0962 C.2       1 UNK         0.5154 
     36 O          26.8546   -0.7783   -0.5460 O.2       1 UNK        -0.5181 
     37 C          28.0149   -0.7394   -6.6699 C.2       5 UNK         0.5014 
     38 O          28.8859   -0.4356   -7.4868 O.2       5 UNK        -0.5248 
     39 N          27.3963    0.1420   -5.8722 N.am      6 UNK        -0.4434 
     40 CA         27.6927    1.5690   -5.8012 C.3       6 UNK         0.0363 
     41 CB         26.9799    2.1749   -4.5826 C.3       6 UNK        -0.1936 
     42 C          27.3340    2.3401   -7.0809 C.2       6 UNK         0.5081 
     43 O          28.1289    3.1789   -7.5062 O.2       6 UNK        -0.5248 
     44 N          26.1558    2.0597   -7.6602 N.am      7 UNK        -0.4718 
     45 CA         25.5982    2.7386   -8.8364 C.3       7 UNK         0.0273 
     46 CB         24.2448    2.1079   -9.2048 C.3       7 UNK        -0.1935 
     47 C          26.5470    2.7260  -10.0463 C.2       7 UNK         0.5018 
     48 O          26.8017    1.6586  -10.6083 O.2       7 UNK        -0.5186 
     49 N          27.0662    3.9120  -10.3965 N.am      8 UNK        -0.4240 
     50 CA         28.0209    4.2314  -11.4688 C.3       8 UNK         0.0235 
     51 CB         27.4408    3.8958  -12.8570 C.3       8 UNK        -0.2000 
     52 C          29.4244    3.6200  -11.2952 C.2       8 UNK         0.4941 
     53 O          30.4135    4.3230  -11.5045 O.2       8 UNK        -0.5273 
     54 N          29.4941    2.3343  -10.9345 N.am      9 UNK        -0.4262 
     55 CA         30.7271    1.5631  -10.7877 C.3       9 UNK         0.0264 
     56 CB         30.3881    0.0639  -10.8191 C.3       9 UNK        -0.1955 
     57 C          31.5336    1.9000   -9.5237 C.2       9 UNK         0.5031 
     58 O          32.7446    1.6736   -9.5278 O.2       9 UNK        -0.5390 
     59 N          30.8710    2.3887   -8.4610 N.am      10 UNK        -0.4204 
     60 CA         31.4429    2.6728   -7.1345 C.3       10 UNK         0.0237 
     61 CB         32.3553    3.9164   -7.1950 C.3       10 UNK        -0.1985 
     62 C          32.1382    1.4440   -6.5079 C.2       10 UNK         0.4970 
     63 O          33.2111    1.5762   -5.9175 O.2       10 UNK        -0.4914 
     64 N          31.5244    0.2676   -6.6919 N.am      11 UNK        -0.4285 
     65 CA         32.0397   -1.0661   -6.3491 C.3       11 UNK         0.1007 
     66 C          33.1642   -1.5929   -7.2969 C.2       11 UNK         0.5703 
     67 N          33.6768   -0.8184   -8.2461 N.am      11 UNK        -0.7361 
     68 O          33.5196   -2.7658   -7.2418 O.2       11 UNK        -0.4986 
     69 C69        32.2223   -1.2637   -4.8024 C.3       12 UNK        -0.0947 
     70 S70        33.8391   -1.7890   -4.1162 S.3       12 UNK        -0.2240 
     71 C71        33.7838   -3.6179   -4.1159 C.3       12 UNK         0.0194 
     72 H72        30.9893    1.2223   -0.6466 H         1 UNK         0.0906 
     73 H73        31.6023    1.0970   -2.2968 H         1 UNK         0.0906 
     74 H74        30.1382    2.0267   -1.9672 H         1 UNK         0.0906 
     75 H75        30.0018   -0.6903    0.0060 H         1 UNK         0.3140 
     76 H76        29.1087   -2.6911   -1.8429 H         1 UNK         0.1085 
     77 H77        28.6206   -2.5357    1.1835 H         1 UNK         0.0836 
     78 H78        28.4251   -3.9553    0.1961 H         1 UNK         0.0836 
     79 H79        31.7809   -5.5889    0.1820 H         1 UNK         0.0731 
     80 H80        30.0505   -5.7030    0.0035 H         1 UNK         0.0731 
     81 H81        33.0650   -4.0583   -1.5215 H         1 UNK         0.1312 
     82 H82        31.6250   -4.4601   -5.5355 H         1 UNK         0.1406 
     83 H83        29.1599   -5.6883   -2.2462 H         1 UNK         0.1631 
     84 H84        28.9072   -6.5531   -4.8055 H         1 UNK         0.0717 
     85 H85        29.5257   -5.4476   -6.0064 H         1 UNK         0.0717 
     86 H86        28.0989   -2.1866   -4.3686 H         1 UNK         0.0934 
     87 H87        29.3476   -2.8376   -5.3797 H         1 UNK         0.0934 
     88 H88        27.9507   -2.7651   -7.3734 H         1 UNK         0.0739 
     89 H89        25.7161   -2.2070   -5.5460 H         1 UNK         0.3093 
     90 H90        23.3738   -1.6585   -8.1033 H         1 UNK         0.0818 
     91 H91        22.1420   -3.6730   -7.3219 H         1 UNK         0.0819 
     92 H92        23.4762   -4.1428   -8.3606 H         1 UNK         0.0819 
     93 H93        23.6198   -4.3346   -6.6192 H         1 UNK         0.0819 
     94 H94        23.0459   -2.2963   -5.3277 H         1 UNK         0.3041 
     95 H95        23.7422    0.9520   -4.0455 H         1 UNK         0.0784 
     96 H96        21.3727    1.0356   -4.8526 H         1 UNK         0.0793 
     97 H97        21.1124   -0.6083   -4.2859 H         1 UNK         0.0793 
     98 H98        21.4587    0.6837   -3.1357 H         1 UNK         0.0793 
     99 H99        22.9169   -1.3003   -2.6277 H         1 UNK         0.3024 
    100 H100       24.6310   -2.1625   -1.1200 H         1 UNK         0.1171 
    101 H101       24.9645   -4.1785   -3.4242 H         1 UNK         0.0786 
    102 H102       24.7111   -4.6098   -1.7345 H         1 UNK         0.0786 
    103 H103       23.4546   -3.7713   -2.6233 H         1 UNK         0.0786 
    104 H104       26.9963   -3.4504   -2.2225 H         1 UNK         0.2977 
    105 H105       26.7388   -0.2177   -5.1818 H         1 UNK         0.3127 
    106 H106       28.7676    1.6662   -5.6404 H         1 UNK         0.0770 
    107 H107       25.8962    2.0866   -4.6653 H         1 UNK         0.0814 
    108 H108       27.2168    3.2344   -4.4775 H         1 UNK         0.0814 
    109 H109       27.2860    1.6792   -3.6605 H         1 UNK         0.0814 
    110 H110       25.5562    1.3622   -7.2258 H         1 UNK         0.2983 
    111 H111       25.4128    3.7759   -8.5506 H         1 UNK         0.0947 
    112 H112       23.8347    2.5558  -10.1110 H         1 UNK         0.0806 
    113 H113       23.5103    2.2557   -8.4132 H         1 UNK         0.0806 
    114 H114       24.3365    1.0352   -9.3814 H         1 UNK         0.0806 
    115 H115       26.8229    4.7019   -9.8143 H         1 UNK         0.3000 
    116 H116       28.1518    5.3141  -11.4267 H         1 UNK         0.0850 
    117 H117       28.1163    4.2216  -13.6492 H         1 UNK         0.0810 
    118 H118       26.4865    4.3967  -13.0194 H         1 UNK         0.0810 
    119 H119       27.2836    2.8247  -12.9879 H         1 UNK         0.0810 
    120 H120       28.6120    1.8450  -10.7912 H         1 UNK         0.3040 
    121 H121       31.3667    1.7823  -11.6454 H         1 UNK         0.0766 
    122 H122       29.7011   -0.2113  -10.0184 H         1 UNK         0.0812 
    123 H123       31.2860   -0.5451  -10.7027 H         1 UNK         0.0812 
    124 H124       29.9267   -0.2178  -11.7657 H         1 UNK         0.0812 
    125 H125       29.8709    2.5435   -8.5396 H         1 UNK         0.3205 
    126 H126       30.6077    2.9165   -6.4782 H         1 UNK         0.0754 
    127 H127       32.6889    4.2064   -6.1979 H         1 UNK         0.0769 
    128 H128       31.8300    4.7712   -7.6212 H         1 UNK         0.0769 
    129 H129       33.2465    3.7364   -7.7971 H         1 UNK         0.0769 
    130 H130       30.6302    0.2508   -7.1760 H         1 UNK         0.2981 
    131 H131       31.2041   -1.7119   -6.6199 H         1 UNK         0.0541 
    132 H132       33.3562    0.1325   -8.3903 H         1 UNK         0.3459 
    133 H133       34.3756   -1.2042   -8.8599 H         1 UNK         0.3459 
    134 H134       31.4422   -1.9234   -4.4292 H         1 UNK         0.0612 
    135 H135       32.0016   -0.3282   -4.2888 H         1 UNK         0.0612 
    136 H136       34.6132   -3.9815   -3.5078 H         1 UNK         0.0624 
    137 H137       33.9771   -3.9959   -5.1185 H         1 UNK         0.0624 
@<TRIPOS>BOND
     1    1    2 1    
     2    1   72 1    
     3    1   73 1    
     4    1   74 1    
     5    2    3 2    
     6    2    4 am   BACKBONE|DICT|INTERRES
     7    4    5 1    
     8    4   75 1    
     9    5    6 1    
    10    5   35 1    
    11    5   76 1    
    12    6    7 1    
    13    6   77 1    
    14    6   78 1    
    15    7    8 1    
    16    8    9 1    
    17    8   79 1    
    18    8   80 1    
    19    9   10 ar   
    20    9   14 ar   
    21   10   11 ar   
    22   10   81 1    
    23   11   12 ar   
    24   11   71 1    
    25   12   13 ar   
    26   12   82 1    
    27   13   14 ar   
    28   13   15 1    
    29   14   83 1    
    30   15   16 1    
    31   15   84 1    
    32   15   85 1    
    33   16   17 1    
    34   17   18 1    
    35   17   86 1    
    36   17   87 1    
    37   18   19 1    
    38   18   37 1    
    39   18   88 1    
    40   19   20 am   BACKBONE|DICT|INTERRES
    41   19   89 1    
    42   20   21 2    
    43   20   22 1    
    44   22   23 1    
    45   22   24 1    
    46   22   90 1    
    47   23   91 1    
    48   23   92 1    
    49   23   93 1    
    50   24   25 am   BACKBONE|DICT|INTERRES
    51   24   94 1    
    52   25   26 2    
    53   25   27 1    
    54   27   28 1    
    55   27   29 1    
    56   27   95 1    
    57   28   96 1    
    58   28   97 1    
    59   28   98 1    
    60   29   30 am   BACKBONE|DICT|INTERRES
    61   29   99 1    
    62   30   31 2    
    63   30   32 1    
    64   32   33 1    
    65   32   34 1    
    66   32  100 1    
    67   33  101 1    
    68   33  102 1    
    69   33  103 1    
    70   34   35 am   BACKBONE|DICT|INTERRES
    71   34  104 1    
    72   35   36 2    
    73   37   38 2    
    74   37   39 am   BACKBONE|DICT|INTERRES
    75   39   40 1    
    76   39  105 1    
    77   40   41 1    
    78   40   42 1    
    79   40  106 1    
    80   41  107 1    
    81   41  108 1    
    82   41  109 1    
    83   42   43 2    
    84   42   44 am   BACKBONE|DICT|INTERRES
    85   44   45 1    
    86   44  110 1    
    87   45   46 1    
    88   45   47 1    
    89   45  111 1    
    90   46  112 1    
    91   46  113 1    
    92   46  114 1    
    93   47   48 2    
    94   47   49 am   BACKBONE|DICT|INTERRES
    95   49   50 1    
    96   49  115 1    
    97   50   51 1    
    98   50   52 1    
    99   50  116 1    
   100   51  117 1    
   101   51  118 1    
   102   51  119 1    
   103   52   53 2    
   104   52   54 am   BACKBONE|DICT|INTERRES
   105   54   55 1    
   106   54  120 1    
   107   55   56 1    
   108   55   57 1    
   109   55  121 1    
   110   56  122 1    
   111   56  123 1    
   112   56  124 1    
   113   57   58 2    
   114   57   59 am   BACKBONE|DICT|INTERRES
   115   59   60 1    
   116   59  125 1    
   117   60   61 1    
   118   60   62 1    
   119   60  126 1    
   120   61  127 1    
   121   61  128 1    
   122   61  129 1    
   123   62   63 2    
   124   62   64 am   BACKBONE|DICT|INTERRES
   125   64   65 1    
   126   64  130 1    
   127   65   66 1    
   128   65   69 1    
   129   65  131 1    
   130   66   67 am   BACKBONE|DICT|INTERRES
   131   66   68 2    
   132   67  132 1    
   133   67  133 1    
   134   69   70 1    
   135   69  134 1    
   136   69  135 1    
   137   70   71 1    
   138   71  136 1    
   139   71  137 1    
@<TRIPOS>SUBSTRUCTURE
     1 UNK         1 GROUP             0       ****    0 ROOT    
