@<TRIPOS>MOLECULE
3R137
137   139    1
SMALL
USER_CHARGES


@<TRIPOS>ATOM
      1 CA         32.7293    0.3193   -1.7060 C.3       0 UNK        -0.2020 
      2 C          31.4608   -0.4499   -2.0360 C.2       0 UNK         0.4855 
      3 O          30.8364   -0.1888   -3.0658 O.2       0 UNK        -0.5197 
      4 N          31.0882   -1.3999   -1.1686 N.am      1 UNK        -0.4892 
      5 CA         29.8900   -2.2366   -1.2860 C.3       1 UNK         0.0835 
      6 C6         29.8574   -3.3680   -0.2224 C.3       12 UNK        -0.0855 
      7 S7         31.3862   -4.3703   -0.1781 S.3       12 UNK        -0.2931 
      8 C8         30.9212   -5.8352   -1.1575 C.3       12 UNK         0.0378 
      9 C9         30.5155   -5.4630   -2.5758 C.ar      12 UNK        -0.0802 
     10 C10        31.4459   -4.8836   -3.4445 C.ar      12 UNK        -0.0944 
     11 C11        31.0648   -4.4774   -4.7270 C.ar      12 UNK        -0.0787 
     12 C12        29.7506   -4.6935   -5.1507 C.ar      12 UNK        -0.0862 
     13 C13        28.8217   -5.3031   -4.3032 C.ar      12 UNK        -0.0733 
     14 C14        29.2054   -5.6787   -3.0136 C.ar      12 UNK        -0.0832 
     15 C15        27.4096   -5.5711   -4.7917 C.3       12 UNK         0.0240 
     16 S16        26.2611   -4.2661   -4.2616 S.3       12 UNK        -0.2522 
     17 C17        24.8837   -4.5736   -5.4218 C.3       12 UNK        -0.0967 
     18 CA         24.7403   -3.5516   -6.5815 C.3       5 UNK         0.0660 
     19 N          24.2479   -2.2472   -6.1262 N.am      5 UNK        -0.4015 
     20 C          23.1935   -1.6157   -6.6672 C.2       4 UNK         0.4946 
     21 O          22.5226   -2.0711   -7.5948 O.2       4 UNK        -0.5353 
     22 CA         22.7933   -0.2472   -6.0848 C.3       4 UNK         0.0277 
     23 CB         21.7221   -0.4234   -4.9960 C.3       4 UNK        -0.1981 
     24 N          23.9124    0.5183   -5.5377 N.am      4 UNK        -0.4209 
     25 C          24.9365    1.0025   -6.2536 C.2       3 UNK         0.4942 
     26 O          25.0337    0.8952   -7.4744 O.2       3 UNK        -0.5208 
     27 CA         26.0749    1.6751   -5.4674 C.3       3 UNK         0.0250 
     28 CB         25.8738    3.1975   -5.4147 C.3       3 UNK        -0.1990 
     29 N          26.2448    1.1508   -4.1069 N.am      3 UNK        -0.4232 
     30 C          26.5360   -0.1257   -3.8237 C.2       2 UNK         0.4993 
     31 O          26.6746   -1.0005   -4.6823 O.2       2 UNK        -0.5286 
     32 CA         26.6259   -0.5080   -2.3477 C.3       2 UNK         0.0209 
     33 CB         25.3342   -1.2007   -1.8813 C.3       2 UNK        -0.1931 
     34 N          27.7588   -1.4130   -2.1943 N.am      2 UNK        -0.4546 
     35 C          28.6276   -1.3592   -1.1810 C.2       1 UNK         0.5154 
     36 O          28.4775   -0.6391   -0.1895 O.2       1 UNK        -0.5181 
     37 C          26.0146   -3.4018   -7.4377 C.2       5 UNK         0.5014 
     38 O          26.1701   -4.1428   -8.4096 O.2       5 UNK        -0.5248 
     39 N          26.8945   -2.4501   -7.0868 N.am      6 UNK        -0.4434 
     40 CA         28.1289   -2.1497   -7.8177 C.3       6 UNK         0.0363 
     41 CB         29.0529   -1.3069   -6.9247 C.3       6 UNK        -0.1936 
     42 C          27.8863   -1.4333   -9.1575 C.2       6 UNK         0.5081 
     43 O          28.7430   -1.5112  -10.0383 O.2       6 UNK        -0.5248 
     44 N          26.7490   -0.7320   -9.2821 N.am      7 UNK        -0.4718 
     45 CA         26.2427    0.0290  -10.4340 C.3       7 UNK         0.0273 
     46 CB         26.0584   -0.8686  -11.6728 C.3       7 UNK        -0.1935 
     47 C          27.0537    1.2908  -10.7746 C.2       7 UNK         0.5018 
     48 O          26.4632    2.3520  -10.9765 O.2       7 UNK        -0.5186 
     49 N          28.3857    1.1773  -10.8089 N.am      8 UNK        -0.4240 
     50 CA         29.3437    2.2284  -11.1663 C.3       8 UNK         0.0235 
     51 CB         30.6483    1.5559  -11.6352 C.3       8 UNK        -0.2000 
     52 C          29.5848    3.2649  -10.0458 C.2       8 UNK         0.4941 
     53 O          30.7256    3.6828   -9.8465 O.2       8 UNK        -0.5273 
     54 N          28.5132    3.6666   -9.3445 N.am      9 UNK        -0.4262 
     55 CA         28.4728    4.6470   -8.2489 C.3       9 UNK         0.0264 
     56 CB         28.7531    6.0677   -8.7851 C.3       9 UNK        -0.1955 
     57 C          29.3674    4.2680   -7.0480 C.2       9 UNK         0.5031 
     58 O          30.0567    5.1335   -6.5044 O.2       9 UNK        -0.5390 
     59 N          29.3065    2.9820   -6.6649 N.am      10 UNK        -0.4204 
     60 CA         30.0959    2.2752   -5.6424 C.3       10 UNK         0.0237 
     61 CB         30.1336    3.0241   -4.2939 C.3       10 UNK        -0.1985 
     62 C          31.5063    1.9284   -6.1512 C.2       10 UNK         0.4970 
     63 O          32.1302    2.7259   -6.8523 O.2       10 UNK        -0.4914 
     64 N          31.9870    0.7329   -5.7913 N.am      11 UNK        -0.4285 
     65 CA         33.2860    0.1910   -6.2322 C.3       11 UNK         0.1007 
     66 C          34.5157    0.6751   -5.4068 C.2       11 UNK         0.5703 
     67 N          34.3595    1.5749   -4.4433 N.am      11 UNK        -0.7361 
     68 O          35.6391    0.2473   -5.6620 O.2       11 UNK        -0.4986 
     69 C69        33.2376   -1.3504   -6.4219 C.3       12 UNK        -0.0947 
     70 S70        32.6982   -2.2557   -4.9360 S.3       12 UNK        -0.2240 
     71 C71        32.0667   -3.8036   -5.6542 C.3       12 UNK         0.0194 
     72 H72        32.5957    1.3795   -1.9180 H         1 UNK         0.0906 
     73 H73        33.5553   -0.0535   -2.3104 H         1 UNK         0.0906 
     74 H74        33.0028    0.2183   -0.6559 H         1 UNK         0.0906 
     75 H75        31.6481   -1.5717   -0.3461 H         1 UNK         0.3140 
     76 H76        29.9126   -2.6927   -2.2780 H         1 UNK         0.1085 
     77 H77        29.7189   -2.9477    0.7759 H         1 UNK         0.0836 
     78 H78        29.0009   -4.0236   -0.3909 H         1 UNK         0.0836 
     79 H79        30.1183   -6.3678   -0.6452 H         1 UNK         0.0731 
     80 H80        31.7692   -6.5203   -1.1962 H         1 UNK         0.0731 
     81 H81        32.4593   -4.7123   -3.1072 H         1 UNK         0.1312 
     82 H82        29.4482   -4.3930   -6.1439 H         1 UNK         0.1406 
     83 H83        28.4802   -6.1344   -2.3528 H         1 UNK         0.1631 
     84 H84        27.0586   -6.5343   -4.4183 H         1 UNK         0.0717 
     85 H85        27.4070   -5.6449   -5.8805 H         1 UNK         0.0717 
     86 H86        24.9773   -5.5804   -5.8331 H         1 UNK         0.0934 
     87 H87        23.9597   -4.5941   -4.8418 H         1 UNK         0.0934 
     88 H88        23.9987   -3.9883   -7.2538 H         1 UNK         0.0739 
     89 H89        24.7788   -1.7994   -5.3895 H         1 UNK         0.3093 
     90 H90        22.3603    0.3381   -6.8991 H         1 UNK         0.0818 
     91 H91        20.8594   -0.9684   -5.3824 H         1 UNK         0.0819 
     92 H92        22.1026   -0.9818   -4.1396 H         1 UNK         0.0819 
     93 H93        21.3583    0.5393   -4.6363 H         1 UNK         0.0819 
     94 H94        23.9186    0.6662   -4.5395 H         1 UNK         0.3041 
     95 H95        26.9964    1.4692   -6.0127 H         1 UNK         0.0784 
     96 H96        25.7331    3.6081   -6.4154 H         1 UNK         0.0793 
     97 H97        24.9958    3.4690   -4.8275 H         1 UNK         0.0793 
     98 H98        26.7384    3.6981   -4.9786 H         1 UNK         0.0793 
     99 H99        26.1307    1.8107   -3.3504 H         1 UNK         0.3024 
    100 H100       26.7831    0.3996   -1.7598 H         1 UNK         0.1171 
    101 H101       24.4738   -0.5386   -1.9847 H         1 UNK         0.0786 
    102 H102       25.1258   -2.1015   -2.4594 H         1 UNK         0.0786 
    103 H103       25.3980   -1.4871   -0.8314 H         1 UNK         0.0786 
    104 H104       27.9492   -1.9893   -3.0055 H         1 UNK         0.2977 
    105 H105       26.7417   -1.9239   -6.2269 H         1 UNK         0.3127 
    106 H106       28.6332   -3.0922   -8.0401 H         1 UNK         0.0770 
    107 H107       28.5907   -0.3532   -6.6754 H         1 UNK         0.0814 
    108 H108       29.9991   -1.0956   -7.4245 H         1 UNK         0.0814 
    109 H109       29.2856   -1.8178   -5.9900 H         1 UNK         0.0814 
    110 H110       26.1573   -0.6636   -8.4618 H         1 UNK         0.2983 
    111 H111       25.2507    0.3749  -10.1379 H         1 UNK         0.0947 
    112 H112       27.0083   -1.2454  -12.0529 H         1 UNK         0.0806 
    113 H113       25.5825   -0.3166  -12.4843 H         1 UNK         0.0806 
    114 H114       25.4238   -1.7260  -11.4483 H         1 UNK         0.0806 
    115 H115       28.7664    0.2559  -10.6025 H         1 UNK         0.3000 
    116 H116       28.9356    2.7823  -12.0145 H         1 UNK         0.0850 
    117 H117       31.3650    2.2935  -11.9987 H         1 UNK         0.0810 
    118 H118       30.4644    0.8593  -12.4535 H         1 UNK         0.0810 
    119 H119       31.1276    1.0036  -10.8257 H         1 UNK         0.0810 
    120 H120       27.6170    3.2905   -9.6407 H         1 UNK         0.3040 
    121 H121       27.4485    4.6409   -7.8742 H         1 UNK         0.0766 
    122 H122       29.7789    6.1701   -9.1406 H         1 UNK         0.0812 
    123 H123       28.6029    6.8168   -8.0066 H         1 UNK         0.0812 
    124 H124       28.0855    6.3205   -9.6087 H         1 UNK         0.0812 
    125 H125       28.7338    2.3840   -7.2415 H         1 UNK         0.3205 
    126 H126       29.5706    1.3370   -5.4626 H         1 UNK         0.0754 
    127 H127       30.5677    2.3993   -3.5139 H         1 UNK         0.0769 
    128 H128       29.1321    3.3005   -3.9649 H         1 UNK         0.0769 
    129 H129       30.7367    3.9308   -4.3432 H         1 UNK         0.0769 
    130 H130       31.4780    0.1651   -5.1218 H         1 UNK         0.2981 
    131 H131       33.4761    0.5919   -7.2295 H         1 UNK         0.0541 
    132 H132       35.1658    1.8915   -3.9288 H         1 UNK         0.3459 
    133 H133       33.4496    1.9584   -4.2506 H         1 UNK         0.3459 
    134 H134       34.2050   -1.7419   -6.7409 H         1 UNK         0.0612 
    135 H135       32.5471   -1.5775   -7.2350 H         1 UNK         0.0612 
    136 H136       32.9017   -4.4786   -5.8455 H         1 UNK         0.0624 
    137 H137       31.6040   -3.5962   -6.6201 H         1 UNK         0.0624 
@<TRIPOS>BOND
     1    1    2 1    
     2    1   72 1    
     3    1   73 1    
     4    1   74 1    
     5    2    3 2    
     6    2    4 am   BACKBONE|DICT|INTERRES
     7    4    5 1    
     8    4   75 1    
     9    5    6 1    
    10    5   35 1    
    11    5   76 1    
    12    6    7 1    
    13    6   77 1    
    14    6   78 1    
    15    7    8 1    
    16    8    9 1    
    17    8   79 1    
    18    8   80 1    
    19    9   10 ar   
    20    9   14 ar   
    21   10   11 ar   
    22   10   81 1    
    23   11   12 ar   
    24   11   71 1    
    25   12   13 ar   
    26   12   82 1    
    27   13   14 ar   
    28   13   15 1    
    29   14   83 1    
    30   15   16 1    
    31   15   84 1    
    32   15   85 1    
    33   16   17 1    
    34   17   18 1    
    35   17   86 1    
    36   17   87 1    
    37   18   19 1    
    38   18   37 1    
    39   18   88 1    
    40   19   20 am   BACKBONE|DICT|INTERRES
    41   19   89 1    
    42   20   21 2    
    43   20   22 1    
    44   22   23 1    
    45   22   24 1    
    46   22   90 1    
    47   23   91 1    
    48   23   92 1    
    49   23   93 1    
    50   24   25 am   BACKBONE|DICT|INTERRES
    51   24   94 1    
    52   25   26 2    
    53   25   27 1    
    54   27   28 1    
    55   27   29 1    
    56   27   95 1    
    57   28   96 1    
    58   28   97 1    
    59   28   98 1    
    60   29   30 am   BACKBONE|DICT|INTERRES
    61   29   99 1    
    62   30   31 2    
    63   30   32 1    
    64   32   33 1    
    65   32   34 1    
    66   32  100 1    
    67   33  101 1    
    68   33  102 1    
    69   33  103 1    
    70   34   35 am   BACKBONE|DICT|INTERRES
    71   34  104 1    
    72   35   36 2    
    73   37   38 2    
    74   37   39 am   BACKBONE|DICT|INTERRES
    75   39   40 1    
    76   39  105 1    
    77   40   41 1    
    78   40   42 1    
    79   40  106 1    
    80   41  107 1    
    81   41  108 1    
    82   41  109 1    
    83   42   43 2    
    84   42   44 am   BACKBONE|DICT|INTERRES
    85   44   45 1    
    86   44  110 1    
    87   45   46 1    
    88   45   47 1    
    89   45  111 1    
    90   46  112 1    
    91   46  113 1    
    92   46  114 1    
    93   47   48 2    
    94   47   49 am   BACKBONE|DICT|INTERRES
    95   49   50 1    
    96   49  115 1    
    97   50   51 1    
    98   50   52 1    
    99   50  116 1    
   100   51  117 1    
   101   51  118 1    
   102   51  119 1    
   103   52   53 2    
   104   52   54 am   BACKBONE|DICT|INTERRES
   105   54   55 1    
   106   54  120 1    
   107   55   56 1    
   108   55   57 1    
   109   55  121 1    
   110   56  122 1    
   111   56  123 1    
   112   56  124 1    
   113   57   58 2    
   114   57   59 am   BACKBONE|DICT|INTERRES
   115   59   60 1    
   116   59  125 1    
   117   60   61 1    
   118   60   62 1    
   119   60  126 1    
   120   61  127 1    
   121   61  128 1    
   122   61  129 1    
   123   62   63 2    
   124   62   64 am   BACKBONE|DICT|INTERRES
   125   64   65 1    
   126   64  130 1    
   127   65   66 1    
   128   65   69 1    
   129   65  131 1    
   130   66   67 am   BACKBONE|DICT|INTERRES
   131   66   68 2    
   132   67  132 1    
   133   67  133 1    
   134   69   70 1    
   135   69  134 1    
   136   69  135 1    
   137   70   71 1    
   138   71  136 1    
   139   71  137 1    
@<TRIPOS>SUBSTRUCTURE
     1 UNK         1 GROUP             0       ****    0 ROOT    
