@<TRIPOS>MOLECULE
3R137
137   139    1
SMALL
USER_CHARGES


@<TRIPOS>ATOM
      1 CA         27.5094   -4.5327   -9.3865 C.3       0 UNK        -0.2020 
      2 C          27.8168   -3.6296   -8.2025 C.2       0 UNK         0.4855 
      3 O          26.9001   -3.2089   -7.5018 O.2       0 UNK        -0.5197 
      4 N          29.1012   -3.3401   -7.9777 N.am      1 UNK        -0.4892 
      5 CA         29.6317   -2.6613   -6.7907 C.3       1 UNK         0.0835 
      6 C6         31.1760   -2.8045   -6.7145 C.3       12 UNK        -0.0855 
      7 S7         31.6929   -4.5623   -6.8029 S.3       12 UNK        -0.2931 
      8 C8         32.5415   -4.8706   -5.2145 C.3       12 UNK         0.0378 
      9 C9         31.7728   -4.3975   -3.9847 C.ar      12 UNK        -0.0802 
     10 C10        32.4598   -3.7213   -2.9731 C.ar      12 UNK        -0.0944 
     11 C11        31.7788   -3.1951   -1.8748 C.ar      12 UNK        -0.0787 
     12 C12        30.4017   -3.3994   -1.7622 C.ar      12 UNK        -0.0862 
     13 C13        29.7052   -4.1127   -2.7431 C.ar      12 UNK        -0.0733 
     14 C14        30.3967   -4.6171   -3.8488 C.ar      12 UNK        -0.0832 
     15 C15        28.2054   -4.3200   -2.6017 C.3       12 UNK         0.0240 
     16 S16        27.3225   -2.7363   -2.7622 S.3       12 UNK        -0.2522 
     17 C17        26.3133   -2.9487   -4.2681 C.3       12 UNK        -0.0967 
     18 CA         24.8537   -2.4843   -4.0344 C.3       5 UNK         0.0660 
     19 N          24.7690   -1.1047   -3.5622 N.am      5 UNK        -0.4015 
     20 C          23.8771   -0.6438   -2.6748 C.2       4 UNK         0.4946 
     21 O          23.0052   -1.3397   -2.1521 O.2       4 UNK        -0.5353 
     22 CA         23.9804    0.8406   -2.2729 C.3       4 UNK         0.0277 
     23 CB         24.6052    0.9729   -0.8738 C.3       4 UNK        -0.1981 
     24 N          24.7638    1.6371   -3.2190 N.am      4 UNK        -0.4209 
     25 C          24.3331    2.0163   -4.4295 C.2       3 UNK         0.4942 
     26 O          23.1866    1.8348   -4.8389 O.2       3 UNK        -0.5208 
     27 CA         25.3724    2.6691   -5.3547 C.3       3 UNK         0.0250 
     28 CB         25.3331    4.2000   -5.2238 C.3       3 UNK        -0.1990 
     29 N          26.7457    2.1914   -5.1308 N.am      3 UNK        -0.4232 
     30 C          27.1630    0.9395   -5.3690 C.2       2 UNK         0.4993 
     31 O          26.4130    0.0521   -5.7841 O.2       2 UNK        -0.5286 
     32 CA         28.6460    0.6433   -5.0683 C.3       2 UNK         0.0209 
     33 CB         28.9604    0.8469   -3.5749 C.3       2 UNK        -0.1931 
     34 N          29.0474   -0.7178   -5.4315 N.am      2 UNK        -0.4546 
     35 C          29.1935   -1.1836   -6.6788 C.2       1 UNK         0.5154 
     36 O          29.0365   -0.4925   -7.6895 O.2       1 UNK        -0.5181 
     37 C          23.9777   -2.6295   -5.2884 C.2       5 UNK         0.5014 
     38 O          22.9789   -3.3492   -5.2300 O.2       5 UNK        -0.5248 
     39 N          24.3280   -1.9180   -6.3717 N.am      6 UNK        -0.4434 
     40 CA         23.5712   -1.8788   -7.6258 C.3       6 UNK         0.0363 
     41 CB         23.4496   -3.2731   -8.2858 C.3       6 UNK        -0.1936 
     42 C          24.1653   -0.8838   -8.6302 C.2       6 UNK         0.5081 
     43 O          23.4569    0.0239   -9.0654 O.2       6 UNK        -0.5248 
     44 N          25.4194   -1.1133   -9.0469 N.am      7 UNK        -0.4718 
     45 CA         25.9807   -0.5167  -10.2709 C.3       7 UNK         0.0273 
     46 CB         27.1844   -1.3355  -10.7614 C.3       7 UNK        -0.1935 
     47 C          26.3663    0.9659  -10.1755 C.2       7 UNK         0.5018 
     48 O          26.5257    1.5967  -11.2218 O.2       7 UNK        -0.5186 
     49 N          26.5296    1.4876   -8.9528 N.am      8 UNK        -0.4240 
     50 CA         26.9788    2.8546   -8.6585 C.3       8 UNK         0.0235 
     51 CB         25.9584    3.9082   -9.1427 C.3       8 UNK        -0.2000 
     52 C          28.4226    3.1318   -9.1146 C.2       8 UNK         0.4941 
     53 O          28.7227    4.2387   -9.5674 O.2       8 UNK        -0.5273 
     54 N          29.2968    2.1297   -8.9460 N.am      9 UNK        -0.4262 
     55 CA         30.7484    2.2737   -9.0206 C.3       9 UNK         0.0264 
     56 CB         31.3488    1.0150   -9.6826 C.3       9 UNK        -0.1955 
     57 C          31.2799    2.5611   -7.6015 C.2       9 UNK         0.5031 
     58 O          30.7035    3.3886   -6.8911 O.2       9 UNK        -0.5390 
     59 N          32.3510    1.8772   -7.1944 N.am      10 UNK        -0.4204 
     60 CA         32.9458    1.9516   -5.8643 C.3       10 UNK         0.0237 
     61 CB         34.0340    3.0412   -5.8450 C.3       10 UNK        -0.1985 
     62 C          33.5231    0.5773   -5.5147 C.2       10 UNK         0.4970 
     63 O          33.6614   -0.2707   -6.4015 O.2       10 UNK        -0.4914 
     64 N          33.8508    0.3872   -4.2327 N.am      11 UNK        -0.4285 
     65 CA         34.4951   -0.8263   -3.7156 C.3       11 UNK         0.1007 
     66 C          35.9303   -1.0304   -4.2776 C.2       11 UNK         0.5703 
     67 N          36.3584   -2.2727   -4.4583 N.am      11 UNK        -0.7361 
     68 O          36.6717   -0.0764   -4.5082 O.2       11 UNK        -0.4986 
     69 C69        34.5136   -0.8556   -2.1638 C.3       12 UNK        -0.0947 
     70 S70        32.8640   -0.6949   -1.3929 S.3       12 UNK        -0.2240 
     71 C71        32.5252   -2.3926   -0.8201 C.3       12 UNK         0.0194 
     72 H72        26.5124   -4.3300   -9.7763 H         1 UNK         0.0906 
     73 H73        28.2271   -4.3916  -10.1943 H         1 UNK         0.0906 
     74 H74        27.5413   -5.5765   -9.0758 H         1 UNK         0.0906 
     75 H75        29.8052   -3.7020   -8.6047 H         1 UNK         0.3140 
     76 H76        29.2012   -3.1790   -5.9319 H         1 UNK         0.1085 
     77 H77        31.5657   -2.3499   -5.8017 H         1 UNK         0.0836 
     78 H78        31.6501   -2.2679   -7.5388 H         1 UNK         0.0836 
     79 H79        33.5188   -4.3874   -5.2617 H         1 UNK         0.0731 
     80 H80        32.7317   -5.9403   -5.1196 H         1 UNK         0.0731 
     81 H81        33.5282   -3.5834   -3.0474 H         1 UNK         0.1312 
     82 H82        29.8644   -2.9938   -0.9156 H         1 UNK         0.1406 
     83 H83        29.8635   -5.1633   -4.6152 H         1 UNK         0.1631 
     84 H84        27.9943   -4.7400   -1.6173 H         1 UNK         0.0717 
     85 H85        27.8424   -5.0497   -3.3260 H         1 UNK         0.0717 
     86 H86        26.7847   -2.3803   -5.0673 H         1 UNK         0.0934 
     87 H87        26.3262   -3.9900   -4.5934 H         1 UNK         0.0934 
     88 H88        24.4329   -3.1424   -3.2705 H         1 UNK         0.0739 
     89 H89        25.4122   -0.4581   -3.9988 H         1 UNK         0.3093 
     90 H90        22.9655    1.2427   -2.2360 H         1 UNK         0.0818 
     91 H91        25.6230    0.5812   -0.8464 H         1 UNK         0.0819 
     92 H92        24.6344    2.0127   -0.5476 H         1 UNK         0.0819 
     93 H93        24.0245    0.4200   -0.1339 H         1 UNK         0.0819 
     94 H94        25.7147    1.8524   -2.9576 H         1 UNK         0.3041 
     95 H95        25.0848    2.4070   -6.3749 H         1 UNK         0.0784 
     96 H96        24.3283    4.5812   -5.4118 H         1 UNK         0.0793 
     97 H97        25.6246    4.5290   -4.2255 H         1 UNK         0.0793 
     98 H98        25.9972    4.6793   -5.9432 H         1 UNK         0.0793 
     99 H99        27.4080    2.8718   -4.7846 H         1 UNK         0.3024 
    100 H100       29.2472    1.3409   -5.6549 H         1 UNK         0.1171 
    101 H101       28.3468    0.2049   -2.9413 H         1 UNK         0.0786 
    102 H102       30.0058    0.6245   -3.3570 H         1 UNK         0.0786 
    103 H103       28.7869    1.8771   -3.2627 H         1 UNK         0.0786 
    104 H104       29.1693   -1.3576   -4.6594 H         1 UNK         0.2977 
    105 H105       25.1489   -1.3165   -6.3222 H         1 UNK         0.3127 
    106 H106       22.5650   -1.5280   -7.3873 H         1 UNK         0.0770 
    107 H107       24.4165   -3.7686   -8.3686 H         1 UNK         0.0814 
    108 H108       23.0345   -3.1983   -9.2919 H         1 UNK         0.0814 
    109 H109       22.7867   -3.9319   -7.7263 H         1 UNK         0.0814 
    110 H110       25.9525   -1.8512   -8.5937 H         1 UNK         0.2983 
    111 H111       25.2127   -0.5777  -11.0457 H         1 UNK         0.0947 
    112 H112       27.6160   -0.8981  -11.6630 H         1 UNK         0.0806 
    113 H113       26.8910   -2.3510  -11.0199 H         1 UNK         0.0806 
    114 H114       27.9780   -1.3749  -10.0158 H         1 UNK         0.0806 
    115 H115       26.3985    0.8681   -8.1628 H         1 UNK         0.3000 
    116 H116       27.0261    2.9418   -7.5790 H         1 UNK         0.0850 
    117 H117       25.9126    3.9633  -10.2304 H         1 UNK         0.0810 
    118 H118       24.9565    3.6880   -8.7742 H         1 UNK         0.0810 
    119 H119       26.2239    4.9022   -8.7808 H         1 UNK         0.0810 
    120 H120       28.9705    1.2478   -8.5576 H         1 UNK         0.3040 
    121 H121       31.0085    3.1332   -9.6416 H         1 UNK         0.0766 
    122 H122       32.4181    1.1323   -9.8626 H         1 UNK         0.0812 
    123 H123       30.8859    0.8275  -10.6517 H         1 UNK         0.0812 
    124 H124       31.2069    0.1201   -9.0756 H         1 UNK         0.0812 
    125 H125       32.7387    1.1492   -7.7822 H         1 UNK         0.3205 
    126 H126       32.1746    2.1875   -5.1273 H         1 UNK         0.0754 
    127 H127       34.4909    3.1285   -4.8586 H         1 UNK         0.0769 
    128 H128       33.6195    4.0181   -6.0949 H         1 UNK         0.0769 
    129 H129       34.8317    2.8247   -6.5568 H         1 UNK         0.0769 
    130 H130       33.7200    1.1346   -3.5679 H         1 UNK         0.2981 
    131 H131       33.8895   -1.6582   -4.0723 H         1 UNK         0.0541 
    132 H132       37.2930   -2.4179   -4.8069 H         1 UNK         0.3459 
    133 H133       35.7727   -3.0670   -4.2592 H         1 UNK         0.3459 
    134 H134       35.1307   -0.0396   -1.7832 H         1 UNK         0.0612 
    135 H135       34.9863   -1.7722   -1.8077 H         1 UNK         0.0612 
    136 H136       31.9304   -2.3322    0.0925 H         1 UNK         0.0624 
    137 H137       33.4495   -2.8996   -0.5409 H         1 UNK         0.0624 
@<TRIPOS>BOND
     1    1    2 1    
     2    1   72 1    
     3    1   73 1    
     4    1   74 1    
     5    2    3 2    
     6    2    4 am   BACKBONE|DICT|INTERRES
     7    4    5 1    
     8    4   75 1    
     9    5    6 1    
    10    5   35 1    
    11    5   76 1    
    12    6    7 1    
    13    6   77 1    
    14    6   78 1    
    15    7    8 1    
    16    8    9 1    
    17    8   79 1    
    18    8   80 1    
    19    9   10 ar   
    20    9   14 ar   
    21   10   11 ar   
    22   10   81 1    
    23   11   12 ar   
    24   11   71 1    
    25   12   13 ar   
    26   12   82 1    
    27   13   14 ar   
    28   13   15 1    
    29   14   83 1    
    30   15   16 1    
    31   15   84 1    
    32   15   85 1    
    33   16   17 1    
    34   17   18 1    
    35   17   86 1    
    36   17   87 1    
    37   18   19 1    
    38   18   37 1    
    39   18   88 1    
    40   19   20 am   BACKBONE|DICT|INTERRES
    41   19   89 1    
    42   20   21 2    
    43   20   22 1    
    44   22   23 1    
    45   22   24 1    
    46   22   90 1    
    47   23   91 1    
    48   23   92 1    
    49   23   93 1    
    50   24   25 am   BACKBONE|DICT|INTERRES
    51   24   94 1    
    52   25   26 2    
    53   25   27 1    
    54   27   28 1    
    55   27   29 1    
    56   27   95 1    
    57   28   96 1    
    58   28   97 1    
    59   28   98 1    
    60   29   30 am   BACKBONE|DICT|INTERRES
    61   29   99 1    
    62   30   31 2    
    63   30   32 1    
    64   32   33 1    
    65   32   34 1    
    66   32  100 1    
    67   33  101 1    
    68   33  102 1    
    69   33  103 1    
    70   34   35 am   BACKBONE|DICT|INTERRES
    71   34  104 1    
    72   35   36 2    
    73   37   38 2    
    74   37   39 am   BACKBONE|DICT|INTERRES
    75   39   40 1    
    76   39  105 1    
    77   40   41 1    
    78   40   42 1    
    79   40  106 1    
    80   41  107 1    
    81   41  108 1    
    82   41  109 1    
    83   42   43 2    
    84   42   44 am   BACKBONE|DICT|INTERRES
    85   44   45 1    
    86   44  110 1    
    87   45   46 1    
    88   45   47 1    
    89   45  111 1    
    90   46  112 1    
    91   46  113 1    
    92   46  114 1    
    93   47   48 2    
    94   47   49 am   BACKBONE|DICT|INTERRES
    95   49   50 1    
    96   49  115 1    
    97   50   51 1    
    98   50   52 1    
    99   50  116 1    
   100   51  117 1    
   101   51  118 1    
   102   51  119 1    
   103   52   53 2    
   104   52   54 am   BACKBONE|DICT|INTERRES
   105   54   55 1    
   106   54  120 1    
   107   55   56 1    
   108   55   57 1    
   109   55  121 1    
   110   56  122 1    
   111   56  123 1    
   112   56  124 1    
   113   57   58 2    
   114   57   59 am   BACKBONE|DICT|INTERRES
   115   59   60 1    
   116   59  125 1    
   117   60   61 1    
   118   60   62 1    
   119   60  126 1    
   120   61  127 1    
   121   61  128 1    
   122   61  129 1    
   123   62   63 2    
   124   62   64 am   BACKBONE|DICT|INTERRES
   125   64   65 1    
   126   64  130 1    
   127   65   66 1    
   128   65   69 1    
   129   65  131 1    
   130   66   67 am   BACKBONE|DICT|INTERRES
   131   66   68 2    
   132   67  132 1    
   133   67  133 1    
   134   69   70 1    
   135   69  134 1    
   136   69  135 1    
   137   70   71 1    
   138   71  136 1    
   139   71  137 1    
@<TRIPOS>SUBSTRUCTURE
     1 UNK         1 GROUP             0       ****    0 ROOT    
