@<TRIPOS>MOLECULE
3R137
137   139    1
SMALL
USER_CHARGES


@<TRIPOS>ATOM
      1 CA         28.3172   -1.7972    3.9321 C.3       0 UNK        -0.2020 
      2 C          28.1150   -1.3907    2.4799 C.2       0 UNK         0.4855 
      3 O          27.5960   -0.3057    2.2141 O.2       0 UNK        -0.5197 
      4 N          28.5286   -2.2476    1.5391 N.am      1 UNK        -0.4892 
      5 CA         28.3435   -2.0618    0.0967 C.3       1 UNK         0.0835 
      6 C6         29.3827   -2.8779   -0.7133 C.3       12 UNK        -0.0855 
      7 S7         29.2980   -4.6887   -0.4601 S.3       12 UNK        -0.2931 
      8 C8         30.8970   -5.2315   -1.1481 C.3       12 UNK         0.0378 
      9 C9         31.1454   -4.6680   -2.5408 C.ar      12 UNK        -0.0802 
     10 C10        32.1823   -3.7531   -2.7514 C.ar      12 UNK        -0.0944 
     11 C11        32.3929   -3.2036   -4.0182 C.ar      12 UNK        -0.0787 
     12 C12        31.5623   -3.5761   -5.0781 C.ar      12 UNK        -0.0862 
     13 C13        30.5089   -4.4720   -4.8762 C.ar      12 UNK        -0.0733 
     14 C14        30.3181   -5.0315   -3.6091 C.ar      12 UNK        -0.0832 
     15 C15        29.5614   -4.8101   -6.0196 C.3       12 UNK         0.0240 
     16 S16        27.8996   -4.1030   -5.7619 S.3       12 UNK        -0.2522 
     17 C17        28.2268   -2.3064   -5.7300 C.3       12 UNK        -0.0967 
     18 CA         27.5010   -1.5509   -6.8688 C.3       5 UNK         0.0660 
     19 N          26.0435   -1.6851   -6.7906 N.am      5 UNK        -0.4015 
     20 C          25.1822   -1.2823   -7.7357 C.2       4 UNK         0.4946 
     21 O          25.5189   -0.7713   -8.8035 O.2       4 UNK        -0.5353 
     22 CA         23.6874   -1.4359   -7.4120 C.3       4 UNK         0.0277 
     23 CB         23.2289   -2.8873   -7.6274 C.3       4 UNK        -0.1981 
     24 N          23.3612   -1.0088   -6.0486 N.am      4 UNK        -0.4209 
     25 C          23.4823    0.2503   -5.6024 C.2       3 UNK         0.4942 
     26 O          23.8448    1.1934   -6.3019 O.2       3 UNK        -0.5208 
     27 CA         23.1930    0.4960   -4.1140 C.3       3 UNK         0.0250 
     28 CB         21.6923    0.7394   -3.8882 C.3       3 UNK        -0.1990 
     29 N          23.6556   -0.5868   -3.2413 N.am      3 UNK        -0.4232 
     30 C          24.9329   -0.9682   -3.1086 C.2       2 UNK         0.4993 
     31 O          25.8733   -0.4851   -3.7476 O.2       2 UNK        -0.5286 
     32 CA         25.1977   -2.1097   -2.1261 C.3       2 UNK         0.0209 
     33 CB         25.1224   -3.4728   -2.8375 C.3       2 UNK        -0.1931 
     34 N          26.5218   -1.9247   -1.5409 N.am      2 UNK        -0.4546 
     35 C          26.8915   -2.3702   -0.3352 C.2       1 UNK         0.5154 
     36 O          26.1422   -3.0121    0.4085 O.2       1 UNK        -0.5181 
     37 C          27.9242   -0.0706   -6.8924 C.2       5 UNK         0.5014 
     38 O          28.7855    0.2973   -7.6938 O.2       5 UNK        -0.5248 
     39 N          27.2928    0.7491   -6.0381 N.am      6 UNK        -0.4434 
     40 CA         27.4874    2.1979   -5.9791 C.3       6 UNK         0.0363 
     41 CB         26.7580    2.7705   -4.7537 C.3       6 UNK        -0.1936 
     42 C          27.0439    2.9100   -7.2683 C.2       6 UNK         0.5081 
     43 O          27.7998    3.7299   -7.7882 O.2       6 UNK        -0.5248 
     44 N          25.8531    2.5662   -7.7813 N.am      7 UNK        -0.4718 
     45 CA         25.2909    3.1037   -9.0257 C.3       7 UNK         0.0273 
     46 CB         23.8350    2.6377   -9.1835 C.3       7 UNK        -0.1935 
     47 C          26.1118    2.7340  -10.2714 C.2       7 UNK         0.5018 
     48 O          26.2871    3.5778  -11.1511 O.2       7 UNK        -0.5186 
     49 N          26.6238    1.4961  -10.3118 N.am      8 UNK        -0.4240 
     50 CA         27.5361    1.0110  -11.3507 C.3       8 UNK         0.0235 
     51 CB         27.5875   -0.5250  -11.2910 C.3       8 UNK        -0.2000 
     52 C          28.9600    1.5885  -11.2409 C.2       8 UNK         0.4941 
     53 O          29.7179    1.4747  -12.2050 O.2       8 UNK        -0.5273 
     54 N          29.3069    2.1554  -10.0733 N.am      9 UNK        -0.4262 
     55 CA         30.6417    2.6011   -9.6547 C.3       9 UNK         0.0264 
     56 CB         31.1080    3.8175  -10.4815 C.3       9 UNK        -0.1955 
     57 C          31.6569    1.4413   -9.6521 C.2       9 UNK         0.5031 
     58 O          32.8058    1.6167  -10.0647 O.2       9 UNK        -0.5390 
     59 N          31.2034    0.2665   -9.1903 N.am      10 UNK        -0.4204 
     60 CA         31.9247   -1.0086   -9.2474 C.3       10 UNK         0.0237 
     61 CB         30.9805   -2.1373   -8.8038 C.3       10 UNK        -0.1985 
     62 C          33.2308   -1.0379   -8.4356 C.2       10 UNK         0.4970 
     63 O          34.1242   -1.8182   -8.7668 O.2       10 UNK        -0.4914 
     64 N          33.3219   -0.1899   -7.4050 N.am      11 UNK        -0.4285 
     65 CA         34.5229   -0.0005   -6.5790 C.3       11 UNK         0.1007 
     66 C          35.5842    0.9466   -7.2127 C.2       11 UNK         0.5703 
     67 N          35.3294    1.5780   -8.3544 N.am      11 UNK        -0.7361 
     68 O          36.6705    1.1040   -6.6601 O.2       11 UNK        -0.4986 
     69 C69        34.1757    0.4237   -5.1230 C.3       12 UNK        -0.0947 
     70 S70        32.8006   -0.5108   -4.3664 S.3       12 UNK        -0.2240 
     71 C71        33.4976   -2.1874   -4.2504 C.3       12 UNK         0.0194 
     72 H72        28.9384   -1.0632    4.4447 H         1 UNK         0.0906 
     73 H73        27.3567   -1.8484    4.4441 H         1 UNK         0.0906 
     74 H74        28.8003   -2.7703    4.0199 H         1 UNK         0.0906 
     75 H75        28.9075   -3.1453    1.8072 H         1 UNK         0.3140 
     76 H76        28.5167   -1.0058   -0.1244 H         1 UNK         0.1085 
     77 H77        29.2770   -2.6723   -1.7805 H         1 UNK         0.0836 
     78 H78        30.3866   -2.5401   -0.4504 H         1 UNK         0.0836 
     79 H79        31.6932   -4.9373   -0.4624 H         1 UNK         0.0731 
     80 H80        30.9156   -6.3213   -1.1906 H         1 UNK         0.0731 
     81 H81        32.8161   -3.4558   -1.9269 H         1 UNK         0.1312 
     82 H82        31.7230   -3.1399   -6.0535 H         1 UNK         0.1406 
     83 H83        29.4998   -5.7196   -3.4440 H         1 UNK         0.1631 
     84 H84        29.4746   -5.8940   -6.1056 H         1 UNK         0.0717 
     85 H85        29.9558   -4.4578   -6.9738 H         1 UNK         0.0717 
     86 H86        27.9207   -1.9265   -4.7538 H         1 UNK         0.0934 
     87 H87        29.3009   -2.1305   -5.7883 H         1 UNK         0.0934 
     88 H88        27.8163   -1.9873   -7.8192 H         1 UNK         0.0739 
     89 H89        25.6793   -2.0740   -5.9344 H         1 UNK         0.3093 
     90 H90        23.1335   -0.7972   -8.1036 H         1 UNK         0.0818 
     91 H91        22.1526   -2.9881   -7.4861 H         1 UNK         0.0819 
     92 H92        23.4522   -3.2185   -8.6427 H         1 UNK         0.0819 
     93 H93        23.7240   -3.5780   -6.9436 H         1 UNK         0.0819 
     94 H94        23.0451   -1.7189   -5.4046 H         1 UNK         0.3041 
     95 H95        23.7302    1.4013   -3.8237 H         1 UNK         0.0784 
     96 H96        21.3315    1.5555   -4.5162 H         1 UNK         0.0793 
     97 H97        21.0968   -0.1428   -4.1268 H         1 UNK         0.0793 
     98 H98        21.4858    1.0151   -2.8538 H         1 UNK         0.0793 
     99 H99        22.9485   -1.0481   -2.6863 H         1 UNK         0.3024 
    100 H100       24.4450   -2.0686   -1.3349 H         1 UNK         0.1171 
    101 H101       24.1447   -3.6268   -3.2955 H         1 UNK         0.0786 
    102 H102       25.2840   -4.2939   -2.1388 H         1 UNK         0.0786 
    103 H103       25.8716   -3.5562   -3.6246 H         1 UNK         0.0786 
    104 H104       27.1513   -1.3642   -2.1018 H         1 UNK         0.2977 
    105 H105       26.6338    0.3494   -5.3750 H         1 UNK         0.3127 
    106 H106       28.5567    2.3801   -5.8516 H         1 UNK         0.0770 
    107 H107       25.6805    2.6179   -4.8159 H         1 UNK         0.0814 
    108 H108       26.9305    3.8438   -4.6644 H         1 UNK         0.0814 
    109 H109       27.1077    2.3066   -3.8312 H         1 UNK         0.0814 
    110 H110       25.2626    1.9176   -7.2632 H         1 UNK         0.2983 
    111 H111       25.2931    4.1929   -8.9450 H         1 UNK         0.0947 
    112 H112       23.3949    3.0288  -10.1018 H         1 UNK         0.0806 
    113 H113       23.2168    2.9842   -8.3551 H         1 UNK         0.0806 
    114 H114       23.7626    1.5500   -9.2218 H         1 UNK         0.0806 
    115 H115       26.3673    0.8340   -9.5835 H         1 UNK         0.3000 
    116 H116       27.1375    1.3046  -12.3242 H         1 UNK         0.0850 
    117 H117       28.2390   -0.9281  -12.0676 H         1 UNK         0.0810 
    118 H118       26.5993   -0.9608  -11.4386 H         1 UNK         0.0810 
    119 H119       27.9672   -0.8761  -10.3304 H         1 UNK         0.0810 
    120 H120       28.6008    2.1928   -9.3483 H         1 UNK         0.3040 
    121 H121       30.5425    2.9235   -8.6171 H         1 UNK         0.0766 
    122 H122       30.3698    4.6190  -10.4561 H         1 UNK         0.0812 
    123 H123       31.2851    3.5559  -11.5250 H         1 UNK         0.0812 
    124 H124       32.0404    4.2226  -10.0864 H         1 UNK         0.0812 
    125 H125       30.2638    0.2429   -8.7945 H         1 UNK         0.3205 
    126 H126       32.1951   -1.1816  -10.2911 H         1 UNK         0.0754 
    127 H127       31.4841   -3.1048   -8.8238 H         1 UNK         0.0769 
    128 H128       30.1141   -2.2100   -9.4615 H         1 UNK         0.0769 
    129 H129       30.6160   -1.9749   -7.7903 H         1 UNK         0.0769 
    130 H130       32.5397    0.4129   -7.2003 H         1 UNK         0.2981 
    131 H131       35.0295   -0.9640   -6.5147 H         1 UNK         0.0541 
    132 H132       36.0346    2.1813   -8.7463 H         1 UNK         0.3459 
    133 H133       34.4465    1.4600   -8.8391 H         1 UNK         0.3459 
    134 H134       33.8959    1.4784   -5.0971 H         1 UNK         0.0612 
    135 H135       35.0519    0.3266   -4.4793 H         1 UNK         0.0612 
    136 H136       34.0211   -2.4481   -5.1697 H         1 UNK         0.0624 
    137 H137       34.2370   -2.2182   -3.4487 H         1 UNK         0.0624 
@<TRIPOS>BOND
     1    1    2 1    
     2    1   72 1    
     3    1   73 1    
     4    1   74 1    
     5    2    3 2    
     6    2    4 am   BACKBONE|DICT|INTERRES
     7    4    5 1    
     8    4   75 1    
     9    5    6 1    
    10    5   35 1    
    11    5   76 1    
    12    6    7 1    
    13    6   77 1    
    14    6   78 1    
    15    7    8 1    
    16    8    9 1    
    17    8   79 1    
    18    8   80 1    
    19    9   10 ar   
    20    9   14 ar   
    21   10   11 ar   
    22   10   81 1    
    23   11   12 ar   
    24   11   71 1    
    25   12   13 ar   
    26   12   82 1    
    27   13   14 ar   
    28   13   15 1    
    29   14   83 1    
    30   15   16 1    
    31   15   84 1    
    32   15   85 1    
    33   16   17 1    
    34   17   18 1    
    35   17   86 1    
    36   17   87 1    
    37   18   19 1    
    38   18   37 1    
    39   18   88 1    
    40   19   20 am   BACKBONE|DICT|INTERRES
    41   19   89 1    
    42   20   21 2    
    43   20   22 1    
    44   22   23 1    
    45   22   24 1    
    46   22   90 1    
    47   23   91 1    
    48   23   92 1    
    49   23   93 1    
    50   24   25 am   BACKBONE|DICT|INTERRES
    51   24   94 1    
    52   25   26 2    
    53   25   27 1    
    54   27   28 1    
    55   27   29 1    
    56   27   95 1    
    57   28   96 1    
    58   28   97 1    
    59   28   98 1    
    60   29   30 am   BACKBONE|DICT|INTERRES
    61   29   99 1    
    62   30   31 2    
    63   30   32 1    
    64   32   33 1    
    65   32   34 1    
    66   32  100 1    
    67   33  101 1    
    68   33  102 1    
    69   33  103 1    
    70   34   35 am   BACKBONE|DICT|INTERRES
    71   34  104 1    
    72   35   36 2    
    73   37   38 2    
    74   37   39 am   BACKBONE|DICT|INTERRES
    75   39   40 1    
    76   39  105 1    
    77   40   41 1    
    78   40   42 1    
    79   40  106 1    
    80   41  107 1    
    81   41  108 1    
    82   41  109 1    
    83   42   43 2    
    84   42   44 am   BACKBONE|DICT|INTERRES
    85   44   45 1    
    86   44  110 1    
    87   45   46 1    
    88   45   47 1    
    89   45  111 1    
    90   46  112 1    
    91   46  113 1    
    92   46  114 1    
    93   47   48 2    
    94   47   49 am   BACKBONE|DICT|INTERRES
    95   49   50 1    
    96   49  115 1    
    97   50   51 1    
    98   50   52 1    
    99   50  116 1    
   100   51  117 1    
   101   51  118 1    
   102   51  119 1    
   103   52   53 2    
   104   52   54 am   BACKBONE|DICT|INTERRES
   105   54   55 1    
   106   54  120 1    
   107   55   56 1    
   108   55   57 1    
   109   55  121 1    
   110   56  122 1    
   111   56  123 1    
   112   56  124 1    
   113   57   58 2    
   114   57   59 am   BACKBONE|DICT|INTERRES
   115   59   60 1    
   116   59  125 1    
   117   60   61 1    
   118   60   62 1    
   119   60  126 1    
   120   61  127 1    
   121   61  128 1    
   122   61  129 1    
   123   62   63 2    
   124   62   64 am   BACKBONE|DICT|INTERRES
   125   64   65 1    
   126   64  130 1    
   127   65   66 1    
   128   65   69 1    
   129   65  131 1    
   130   66   67 am   BACKBONE|DICT|INTERRES
   131   66   68 2    
   132   67  132 1    
   133   67  133 1    
   134   69   70 1    
   135   69  134 1    
   136   69  135 1    
   137   70   71 1    
   138   71  136 1    
   139   71  137 1    
@<TRIPOS>SUBSTRUCTURE
     1 UNK         1 GROUP             0       ****    0 ROOT    
