@<TRIPOS>MOLECULE
3R137
137   139    1
SMALL
USER_CHARGES


@<TRIPOS>ATOM
      1 CA         28.4482   -5.7576    0.1837 C.3       0 UNK        -0.2020 
      2 C          27.5416   -4.6423    0.6823 C.2       0 UNK         0.4855 
      3 O          26.6332   -4.8968    1.4732 O.2       0 UNK        -0.5197 
      4 N          27.7805   -3.4069    0.2239 N.am      1 UNK        -0.4892 
      5 CA         26.9956   -2.2135    0.5693 C.3       1 UNK         0.0835 
      6 C6         27.7989   -0.9093    0.3181 C.3       12 UNK        -0.0855 
      7 S7         28.2744   -0.6551   -1.4283 S.3       12 UNK        -0.2931 
      8 C8         30.0205   -1.1603   -1.4208 C.3       12 UNK         0.0378 
      9 C9         30.4820   -1.5158   -2.8252 C.ar      12 UNK        -0.0802 
     10 C10        31.4201   -0.7225   -3.4920 C.ar      12 UNK        -0.0944 
     11 C11        31.8556   -1.0684   -4.7756 C.ar      12 UNK        -0.0787 
     12 C12        31.3325   -2.2073   -5.3982 C.ar      12 UNK        -0.0862 
     13 C13        30.3992   -3.0119   -4.7360 C.ar      12 UNK        -0.0733 
     14 C14        29.9801   -2.6605   -3.4508 C.ar      12 UNK        -0.0832 
     15 C15        29.8781   -4.2879   -5.3822 C.3       12 UNK         0.0240 
     16 S16        28.7243   -3.9684   -6.7510 S.3       12 UNK        -0.2522 
     17 C17        27.2714   -3.2512   -5.9080 C.3       12 UNK        -0.0967 
     18 CA         26.6979   -2.0625   -6.7185 C.3       5 UNK         0.0660 
     19 N          25.2462   -1.9296   -6.5822 N.am      5 UNK        -0.4015 
     20 C          24.4698   -1.2939   -7.4721 C.2       4 UNK         0.4946 
     21 O          24.8957   -0.7778   -8.5055 O.2       4 UNK        -0.5353 
     22 CA         22.9713   -1.1870   -7.1433 C.3       4 UNK         0.0277 
     23 CB         22.2316   -2.4677   -7.5615 C.3       4 UNK        -0.1981 
     24 N          22.7199   -0.9112   -5.7275 N.am      4 UNK        -0.4209 
     25 C          23.0707    0.2253   -5.1092 C.2       3 UNK         0.4942 
     26 O          23.5923    1.1812   -5.6809 O.2       3 UNK        -0.5208 
     27 CA         22.8445    0.2914   -3.5895 C.3       3 UNK         0.0250 
     28 CB         21.4332    0.8144   -3.2787 C.3       3 UNK        -0.1990 
     29 N          23.0635   -0.9803   -2.8891 N.am      3 UNK        -0.4232 
     30 C          24.2042   -1.6839   -2.9075 C.2       2 UNK         0.4993 
     31 O          25.1846   -1.3930   -3.5976 O.2       2 UNK        -0.5286 
     32 CA         24.2490   -2.9532   -2.0463 C.3       2 UNK         0.0209 
     33 CB         24.2619   -4.2077   -2.9356 C.3       2 UNK        -0.1931 
     34 N          25.4435   -2.9476   -1.2047 N.am      2 UNK        -0.4546 
     35 C          25.6102   -2.1789   -0.1182 C.2       1 UNK         0.5154 
     36 O          24.7221   -1.4630    0.3487 O.2       1 UNK        -0.5181 
     37 C          27.4094   -0.7316   -6.4118 C.2       5 UNK         0.5014 
     38 O          28.3464   -0.3767   -7.1250 O.2       5 UNK        -0.5248 
     39 N          26.9115    0.0174   -5.4155 N.am      6 UNK        -0.4434 
     40 CA         27.3526    1.3810   -5.1060 C.3       6 UNK         0.0363 
     41 CB         26.6230    1.8943   -3.8545 C.3       6 UNK        -0.1936 
     42 C          27.1478    2.3549   -6.2821 C.2       6 UNK         0.5081 
     43 O          28.0305    3.1695   -6.5513 O.2       6 UNK        -0.5248 
     44 N          26.0018    2.2399   -6.9703 N.am      7 UNK        -0.4718 
     45 CA         25.6772    2.9982   -8.1801 C.3       7 UNK         0.0273 
     46 CB         24.1813    2.8488   -8.5004 C.3       7 UNK        -0.1935 
     47 C          26.5367    2.5939   -9.3900 C.2       7 UNK         0.5018 
     48 O          26.9709    3.4748  -10.1336 O.2       7 UNK        -0.5186 
     49 N          26.7694    1.2840   -9.5681 N.am      8 UNK        -0.4240 
     50 CA         27.6329    0.7327  -10.6187 C.3       8 UNK         0.0235 
     51 CB         27.4572   -0.7924  -10.6930 C.3       8 UNK        -0.2000 
     52 C          29.1156    1.0972  -10.4267 C.2       8 UNK         0.4941 
     53 O          29.7888    1.4124  -11.4092 O.2       8 UNK        -0.5273 
     54 N          29.5785    1.0671   -9.1689 N.am      9 UNK        -0.4262 
     55 CA         30.9261    1.3890   -8.7018 C.3       9 UNK         0.0264 
     56 CB         31.2255    2.8952   -8.8829 C.3       9 UNK        -0.1955 
     57 C          31.9788    0.4390   -9.3053 C.2       9 UNK         0.5031 
     58 O          31.8966   -0.7665   -9.0667 O.2       9 UNK        -0.5390 
     59 N          32.9565    0.9947  -10.0364 N.am      10 UNK        -0.4204 
     60 CA         34.0994    0.3168  -10.6663 C.3       10 UNK         0.0237 
     61 CB         33.6355   -0.7328  -11.7005 C.3       10 UNK        -0.1985 
     62 C          35.1349   -0.2436   -9.6670 C.2       10 UNK         0.4970 
     63 O          35.9280   -1.1094  -10.0412 O.2       10 UNK        -0.4914 
     64 N          35.1496    0.2876   -8.4362 N.am      11 UNK        -0.4285 
     65 CA         36.1842    0.0210   -7.4216 C.3       11 UNK         0.1007 
     66 C          37.5219    0.7818   -7.6688 C.2       11 UNK         0.5703 
     67 N          37.5893    1.7451   -8.5813 N.am      11 UNK        -0.7361 
     68 O          38.5250    0.4820   -7.0253 O.2       11 UNK        -0.4986 
     69 C69        35.6538    0.2755   -5.9845 C.3       12 UNK        -0.0947 
     70 S70        34.5333   -1.0415   -5.4086 S.3       12 UNK        -0.2240 
     71 C71        32.9104   -0.2266   -5.4773 C.3       12 UNK         0.0194 
     72 H72        28.9482   -6.2380    1.0244 H         1 UNK         0.0906 
     73 H73        27.8613   -6.5123   -0.3394 H         1 UNK         0.0906 
     74 H74        29.2135   -5.3894   -0.4994 H         1 UNK         0.0906 
     75 H75        28.5390   -3.2510   -0.4226 H         1 UNK         0.3140 
     76 H76        26.7908   -2.2594    1.6416 H         1 UNK         0.1085 
     77 H77        27.2173   -0.0428    0.6391 H         1 UNK         0.0836 
     78 H78        28.6939   -0.9000    0.9424 H         1 UNK         0.0836 
     79 H79        30.6238   -0.3543   -1.0000 H         1 UNK         0.0731 
     80 H80        30.1629   -2.0243   -0.7710 H         1 UNK         0.0731 
     81 H81        31.8223    0.1565   -3.0071 H         1 UNK         0.1312 
     82 H82        31.6670   -2.4766   -6.3913 H         1 UNK         0.1406 
     83 H83        29.2609   -3.2794   -2.9327 H         1 UNK         0.1631 
     84 H84        29.3892   -4.9286   -4.6465 H         1 UNK         0.0717 
     85 H85        30.7234   -4.8603   -5.7668 H         1 UNK         0.0717 
     86 H86        26.5315   -4.0493   -5.8305 H         1 UNK         0.0934 
     87 H87        27.5058   -2.9624   -4.8818 H         1 UNK         0.0934 
     88 H88        26.8761   -2.2726   -7.7755 H         1 UNK         0.0739 
     89 H89        24.8421   -2.2422   -5.7107 H         1 UNK         0.3093 
     90 H90        22.5663   -0.3548   -7.7235 H         1 UNK         0.0818 
     91 H91        21.1558   -2.3705   -7.4141 H         1 UNK         0.0819 
     92 H92        22.3931   -2.6820   -8.6191 H         1 UNK         0.0819 
     93 H93        22.5714   -3.3373   -6.9976 H         1 UNK         0.0819 
     94 H94        22.2843   -1.6410   -5.1828 H         1 UNK         0.3041 
     95 H95        23.5651    1.0055   -3.1868 H         1 UNK         0.0784 
     96 H96        21.2542    1.7707   -3.7727 H         1 UNK         0.0793 
     97 H97        20.6606    0.1230   -3.6176 H         1 UNK         0.0793 
     98 H98        21.2954    0.9753   -2.2092 H         1 UNK         0.0793 
     99 H99        22.3071   -1.2999   -2.3009 H         1 UNK         0.3024 
    100 H100       23.3678   -2.9899   -1.4015 H         1 UNK         0.1171 
    101 H101       23.3755   -4.2472   -3.5702 H         1 UNK         0.0786 
    102 H102       24.2692   -5.1177   -2.3351 H         1 UNK         0.0786 
    103 H103       25.1342   -4.2326   -3.5899 H         1 UNK         0.0786 
    104 H104       26.2388   -3.4718   -1.5360 H         1 UNK         0.2977 
    105 H105       26.1818   -0.3777   -4.8253 H         1 UNK         0.3127 
    106 H106       28.4214    1.3332   -4.8866 H         1 UNK         0.0770 
    107 H107       25.5622    2.0555   -4.0430 H         1 UNK         0.0814 
    108 H108       27.0419    2.8461   -3.5263 H         1 UNK         0.0814 
    109 H109       26.7094    1.1961   -3.0234 H         1 UNK         0.0814 
    110 H110       25.2886    1.6035   -6.6259 H         1 UNK         0.2983 
    111 H111       25.8749    4.0528   -7.9754 H         1 UNK         0.0947 
    112 H112       23.9130    3.4190   -9.3907 H         1 UNK         0.0806 
    113 H113       23.5629    3.2162   -7.6812 H         1 UNK         0.0806 
    114 H114       23.9084    1.8089   -8.6829 H         1 UNK         0.0806 
    115 H115       26.3124    0.6186   -8.9523 H         1 UNK         0.3000 
    116 H116       27.3083    1.1577  -11.5709 H         1 UNK         0.0850 
    117 H117       28.0530   -1.2136  -11.5038 H         1 UNK         0.0810 
    118 H118       26.4179   -1.0649  -10.8775 H         1 UNK         0.0810 
    119 H119       27.7736   -1.2796   -9.7705 H         1 UNK         0.0810 
    120 H120       28.9676    0.6808   -8.4490 H         1 UNK         0.3040 
    121 H121       30.9163    1.1886   -7.6296 H         1 UNK         0.0766 
    122 H122       32.1879    3.1655   -8.4464 H         1 UNK         0.0812 
    123 H123       30.4706    3.4990   -8.3779 H         1 UNK         0.0812 
    124 H124       31.2324    3.1965   -9.9310 H         1 UNK         0.0812 
    125 H125       32.9100    1.9940  -10.1831 H         1 UNK         0.3205 
    126 H126       34.6278    1.0941  -11.2202 H         1 UNK         0.0754 
    127 H127       34.4747   -1.0941  -12.2962 H         1 UNK         0.0769 
    128 H128       32.9063   -0.3120  -12.3930 H         1 UNK         0.0769 
    129 H129       33.1818   -1.6016  -11.2229 H         1 UNK         0.0769 
    130 H130       34.4740    0.9995   -8.2082 H         1 UNK         0.2981 
    131 H131       36.4488   -1.0362   -7.4887 H         1 UNK         0.0541 
    132 H132       36.7787    2.0062   -9.1176 H         1 UNK         0.3459 
    133 H133       38.4658    2.2204   -8.7291 H         1 UNK         0.3459 
    134 H134       35.1677    1.2500   -5.9146 H         1 UNK         0.0612 
    135 H135       36.4747    0.3019   -5.2652 H         1 UNK         0.0612 
    136 H136       32.9745    0.7620   -5.0204 H         1 UNK         0.0624 
    137 H137       32.6323   -0.0757   -6.5181 H         1 UNK         0.0624 
@<TRIPOS>BOND
     1    1    2 1    
     2    1   72 1    
     3    1   73 1    
     4    1   74 1    
     5    2    3 2    
     6    2    4 am   BACKBONE|DICT|INTERRES
     7    4    5 1    
     8    4   75 1    
     9    5    6 1    
    10    5   35 1    
    11    5   76 1    
    12    6    7 1    
    13    6   77 1    
    14    6   78 1    
    15    7    8 1    
    16    8    9 1    
    17    8   79 1    
    18    8   80 1    
    19    9   10 ar   
    20    9   14 ar   
    21   10   11 ar   
    22   10   81 1    
    23   11   12 ar   
    24   11   71 1    
    25   12   13 ar   
    26   12   82 1    
    27   13   14 ar   
    28   13   15 1    
    29   14   83 1    
    30   15   16 1    
    31   15   84 1    
    32   15   85 1    
    33   16   17 1    
    34   17   18 1    
    35   17   86 1    
    36   17   87 1    
    37   18   19 1    
    38   18   37 1    
    39   18   88 1    
    40   19   20 am   BACKBONE|DICT|INTERRES
    41   19   89 1    
    42   20   21 2    
    43   20   22 1    
    44   22   23 1    
    45   22   24 1    
    46   22   90 1    
    47   23   91 1    
    48   23   92 1    
    49   23   93 1    
    50   24   25 am   BACKBONE|DICT|INTERRES
    51   24   94 1    
    52   25   26 2    
    53   25   27 1    
    54   27   28 1    
    55   27   29 1    
    56   27   95 1    
    57   28   96 1    
    58   28   97 1    
    59   28   98 1    
    60   29   30 am   BACKBONE|DICT|INTERRES
    61   29   99 1    
    62   30   31 2    
    63   30   32 1    
    64   32   33 1    
    65   32   34 1    
    66   32  100 1    
    67   33  101 1    
    68   33  102 1    
    69   33  103 1    
    70   34   35 am   BACKBONE|DICT|INTERRES
    71   34  104 1    
    72   35   36 2    
    73   37   38 2    
    74   37   39 am   BACKBONE|DICT|INTERRES
    75   39   40 1    
    76   39  105 1    
    77   40   41 1    
    78   40   42 1    
    79   40  106 1    
    80   41  107 1    
    81   41  108 1    
    82   41  109 1    
    83   42   43 2    
    84   42   44 am   BACKBONE|DICT|INTERRES
    85   44   45 1    
    86   44  110 1    
    87   45   46 1    
    88   45   47 1    
    89   45  111 1    
    90   46  112 1    
    91   46  113 1    
    92   46  114 1    
    93   47   48 2    
    94   47   49 am   BACKBONE|DICT|INTERRES
    95   49   50 1    
    96   49  115 1    
    97   50   51 1    
    98   50   52 1    
    99   50  116 1    
   100   51  117 1    
   101   51  118 1    
   102   51  119 1    
   103   52   53 2    
   104   52   54 am   BACKBONE|DICT|INTERRES
   105   54   55 1    
   106   54  120 1    
   107   55   56 1    
   108   55   57 1    
   109   55  121 1    
   110   56  122 1    
   111   56  123 1    
   112   56  124 1    
   113   57   58 2    
   114   57   59 am   BACKBONE|DICT|INTERRES
   115   59   60 1    
   116   59  125 1    
   117   60   61 1    
   118   60   62 1    
   119   60  126 1    
   120   61  127 1    
   121   61  128 1    
   122   61  129 1    
   123   62   63 2    
   124   62   64 am   BACKBONE|DICT|INTERRES
   125   64   65 1    
   126   64  130 1    
   127   65   66 1    
   128   65   69 1    
   129   65  131 1    
   130   66   67 am   BACKBONE|DICT|INTERRES
   131   66   68 2    
   132   67  132 1    
   133   67  133 1    
   134   69   70 1    
   135   69  134 1    
   136   69  135 1    
   137   70   71 1    
   138   71  136 1    
   139   71  137 1    
@<TRIPOS>SUBSTRUCTURE
     1 UNK         1 GROUP             0       ****    0 ROOT    
