@<TRIPOS>MOLECULE
3R137
137   139    1
SMALL
USER_CHARGES


@<TRIPOS>ATOM
      1 CA         30.6478   -0.0383   -3.3335 C.3       0 UNK        -0.2020 
      2 C          29.9720   -0.7046   -2.1458 C.2       0 UNK         0.4855 
      3 O          29.9115   -0.1100   -1.0707 O.2       0 UNK        -0.5197 
      4 N          29.4641   -1.9278   -2.3477 N.am      1 UNK        -0.4892 
      5 CA         28.7127   -2.7498   -1.3927 C.3       1 UNK         0.0835 
      6 C6         29.6141   -3.3449   -0.2701 C.3       12 UNK        -0.0855 
      7 S7         29.2909   -5.1300   -0.0550 S.3       12 UNK        -0.2931 
      8 C8         30.6791   -5.8964   -0.9666 C.3       12 UNK         0.0378 
      9 C9         30.8577   -5.3396   -2.3765 C.ar      12 UNK        -0.0802 
     10 C10        32.0640   -4.7328   -2.7409 C.ar      12 UNK        -0.0944 
     11 C11        32.2320   -4.1956   -4.0202 C.ar      12 UNK        -0.0787 
     12 C12        31.1736   -4.2427   -4.9326 C.ar      12 UNK        -0.0862 
     13 C13        29.9652   -4.8538   -4.5849 C.ar      12 UNK        -0.0733 
     14 C14        29.8239   -5.4250   -3.3154 C.ar      12 UNK        -0.0832 
     15 C15        28.8184   -4.9165   -5.5847 C.3       12 UNK         0.0240 
     16 S16        27.3698   -3.9608   -5.0316 S.3       12 UNK        -0.2522 
     17 C17        27.8923   -2.2341   -5.3116 C.3       12 UNK        -0.0967 
     18 CA         27.2518   -1.5902   -6.5648 C.3       5 UNK         0.0660 
     19 N          25.7943   -1.7442   -6.6131 N.am      5 UNK        -0.4015 
     20 C          25.0532   -1.4942   -7.7025 C.2       4 UNK         0.4946 
     21 O          25.5284   -1.1401   -8.7806 O.2       4 UNK        -0.5353 
     22 CA         23.5254   -1.6206   -7.5743 C.3       4 UNK         0.0277 
     23 CB         23.0745   -3.0383   -7.9594 C.3       4 UNK        -0.1981 
     24 N          23.0019   -1.2889   -6.2480 N.am      4 UNK        -0.4209 
     25 C          23.1742   -0.1282   -5.5993 C.2       3 UNK         0.4942 
     26 O          23.8104    0.8238   -6.0533 O.2       3 UNK        -0.5208 
     27 CA         22.5621   -0.0258   -4.1883 C.3       3 UNK         0.0250 
     28 CB         21.3783   -0.9935   -3.9642 C.3       3 UNK        -0.1990 
     29 N          23.5373   -0.1903   -3.0997 N.am      3 UNK        -0.4232 
     30 C          24.4884   -1.1293   -2.9786 C.2       2 UNK         0.4993 
     31 O          24.7992   -1.9331   -3.8627 O.2       2 UNK        -0.5286 
     32 CA         25.1859   -1.2152   -1.6158 C.3       2 UNK         0.0209 
     33 CB         24.2819   -1.9503   -0.6042 C.3       2 UNK        -0.1931 
     34 N          26.4477   -1.9299   -1.7925 N.am      2 UNK        -0.4546 
     35 C          27.4367   -2.0321   -0.8964 C.2       1 UNK         0.5154 
     36 O          27.3779   -1.5551    0.2391 O.2       1 UNK        -0.5181 
     37 C          27.6547   -0.1055   -6.6624 C.2       5 UNK         0.5014 
     38 O          28.6098    0.2214   -7.3658 O.2       5 UNK        -0.5248 
     39 N          26.9070    0.7728   -5.9772 N.am      6 UNK        -0.4434 
     40 CA         27.0954    2.2235   -6.0259 C.3       6 UNK         0.0363 
     41 CB         26.3385    2.8917   -4.8677 C.3       6 UNK        -0.1936 
     42 C          26.6677    2.8049   -7.3822 C.2       6 UNK         0.5081 
     43 O          27.3705    3.6616   -7.9175 O.2       6 UNK        -0.5248 
     44 N          25.5666    2.2865   -7.9480 N.am      7 UNK        -0.4718 
     45 CA         25.0910    2.6124   -9.2990 C.3       7 UNK         0.0273 
     46 CB         23.7271    1.9494   -9.5421 C.3       7 UNK        -0.1935 
     47 C          26.0908    2.2215  -10.4051 C.2       7 UNK         0.5018 
     48 O          26.1923    2.9304  -11.4061 O.2       7 UNK        -0.5186 
     49 N          26.8499    1.1400  -10.1785 N.am      8 UNK        -0.4240 
     50 CA         27.9752    0.6919  -11.0047 C.3       8 UNK         0.0235 
     51 CB         28.1904   -0.8152  -10.7763 C.3       8 UNK        -0.2000 
     52 C          29.2812    1.4868  -10.7744 C.2       8 UNK         0.4941 
     53 O          30.3185    1.0802  -11.2991 O.2       8 UNK        -0.5273 
     54 N          29.2182    2.5947  -10.0188 N.am      9 UNK        -0.4262 
     55 CA         30.3044    3.5220   -9.6807 C.3       9 UNK         0.0264 
     56 CB         30.9751    4.1149  -10.9399 C.3       9 UNK        -0.1955 
     57 C          31.3077    2.9560   -8.6583 C.2       9 UNK         0.5031 
     58 O          32.4783    3.3440   -8.6769 O.2       9 UNK        -0.5390 
     59 N          30.8183    2.0986   -7.7505 N.am      10 UNK        -0.4204 
     60 CA         31.5275    1.5117   -6.6104 C.3       10 UNK         0.0237 
     61 CB         31.9883    2.6083   -5.6205 C.3       10 UNK        -0.1985 
     62 C          32.6413    0.5325   -7.0280 C.2       10 UNK         0.4970 
     63 O          32.6092   -0.0103   -8.1344 O.2       10 UNK        -0.4914 
     64 N          33.5728    0.2764   -6.1037 N.am      11 UNK        -0.4285 
     65 CA         34.6488   -0.7183   -6.2371 C.3       11 UNK         0.1007 
     66 C          35.8685   -0.2486   -7.0830 C.2       11 UNK         0.5703 
     67 N          35.9156    0.9901   -7.5592 N.am      11 UNK        -0.7361 
     68 O          36.7879   -1.0286   -7.3204 O.2       11 UNK        -0.4986 
     69 C69        35.0908   -1.2666   -4.8520 C.3       12 UNK        -0.0947 
     70 S70        33.6889   -1.8626   -3.8466 S.3       12 UNK        -0.2240 
     71 C71        33.5621   -3.5787   -4.4222 C.3       12 UNK         0.0194 
     72 H72        31.6276    0.3375   -3.0406 H         1 UNK         0.0906 
     73 H73        30.0482    0.8032   -3.6797 H         1 UNK         0.0906 
     74 H74        30.7867   -0.7292   -4.1648 H         1 UNK         0.0906 
     75 H75        29.6143   -2.3725   -3.2418 H         1 UNK         0.3140 
     76 H76        28.3416   -3.5765   -1.9983 H         1 UNK         0.1085 
     77 H77        29.4841   -2.8388    0.6875 H         1 UNK         0.0836 
     78 H78        30.6705   -3.2141   -0.5103 H         1 UNK         0.0836 
     79 H79        31.5909   -5.7638   -0.3819 H         1 UNK         0.0731 
     80 H80        30.5103   -6.9722   -1.0282 H         1 UNK         0.0731 
     81 H81        32.8770   -4.6753   -2.0298 H         1 UNK         0.1312 
     82 H82        31.2979   -3.8155   -5.9186 H         1 UNK         0.1406 
     83 H83        28.8926   -5.9042   -3.0440 H         1 UNK         0.1631 
     84 H84        28.5207   -5.9580   -5.7140 H         1 UNK         0.0717 
     85 H85        29.1294   -4.5632   -6.5692 H         1 UNK         0.0717 
     86 H86        27.6229   -1.6632   -4.4225 H         1 UNK         0.0934 
     87 H87        28.9803   -2.1923   -5.3857 H         1 UNK         0.0934 
     88 H88        27.6615   -2.0957   -7.4422 H         1 UNK         0.0739 
     89 H89        25.3370   -2.0130   -5.7450 H         1 UNK         0.3093 
     90 H90        23.0781   -0.9193   -8.2799 H         1 UNK         0.0818 
     91 H91        23.4298   -3.3028   -8.9566 H         1 UNK         0.0819 
     92 H92        23.4612   -3.7870   -7.2667 H         1 UNK         0.0819 
     93 H93        21.9876   -3.1207   -7.9733 H         1 UNK         0.0819 
     94 H94        22.4986   -2.0205   -5.7678 H         1 UNK         0.3041 
     95 H95        22.1738    0.9907   -4.1068 H         1 UNK         0.0784 
     96 H96        20.6358   -0.9053   -4.7589 H         1 UNK         0.0793 
     97 H97        21.6985   -2.0352   -3.9169 H         1 UNK         0.0793 
     98 H98        20.8665   -0.7697   -3.0280 H         1 UNK         0.0793 
     99 H99        23.4060    0.4413   -2.3216 H         1 UNK         0.3024 
    100 H100       25.4006   -0.2044   -1.2618 H         1 UNK         0.1171 
    101 H101       23.3184   -1.4500   -0.4982 H         1 UNK         0.0786 
    102 H102       24.0832   -2.9762   -0.9174 H         1 UNK         0.0786 
    103 H103       24.7302   -1.9859    0.3884 H         1 UNK         0.0786 
    104 H104       26.5423   -2.3492   -2.7105 H         1 UNK         0.2977 
    105 H105       26.0843    0.4399   -5.4929 H         1 UNK         0.3127 
    106 H106       28.1598    2.4327   -5.8957 H         1 UNK         0.0770 
    107 H107       25.2621    2.7323   -4.9357 H         1 UNK         0.0814 
    108 H108       26.5065    3.9695   -4.8668 H         1 UNK         0.0814 
    109 H109       26.6739    2.5115   -3.9027 H         1 UNK         0.0814 
    110 H110       25.0148    1.6243   -7.4092 H         1 UNK         0.2983 
    111 H111       24.9575    3.6955   -9.3450 H         1 UNK         0.0947 
    112 H112       23.8118    0.8644   -9.5893 H         1 UNK         0.0806 
    113 H113       23.2989    2.2808  -10.4889 H         1 UNK         0.0806 
    114 H114       23.0136    2.1994   -8.7564 H         1 UNK         0.0806 
    115 H115       26.6394    0.5725   -9.3646 H         1 UNK         0.3000 
    116 H116       27.7048    0.8344  -12.0530 H         1 UNK         0.0850 
    117 H117       28.9636   -1.2092  -11.4369 H         1 UNK         0.0810 
    118 H118       27.2797   -1.3806  -10.9752 H         1 UNK         0.0810 
    119 H119       28.4981   -1.0267   -9.7522 H         1 UNK         0.0810 
    120 H120       28.3262    2.8294   -9.5970 H         1 UNK         0.3040 
    121 H121       29.8164    4.3518   -9.1674 H         1 UNK         0.0766 
    122 H122       31.5776    3.3750  -11.4672 H         1 UNK         0.0812 
    123 H123       31.6390    4.9388  -10.6753 H         1 UNK         0.0812 
    124 H124       30.2355    4.5079  -11.6374 H         1 UNK         0.0812 
    125 H125       29.8739    1.7481   -7.8779 H         1 UNK         0.3205 
    126 H126       30.7864    0.9028   -6.0943 H         1 UNK         0.0754 
    127 H127       32.3059    2.1870   -4.6668 H         1 UNK         0.0769 
    128 H128       31.1768    3.3022   -5.3997 H         1 UNK         0.0769 
    129 H129       32.8216    3.1902   -6.0161 H         1 UNK         0.0769 
    130 H130       33.5376    0.7660   -5.2227 H         1 UNK         0.2981 
    131 H131       34.2355   -1.5637   -6.7901 H         1 UNK         0.0541 
    132 H132       36.7094    1.2779   -8.1092 H         1 UNK         0.3459 
    133 H133       35.1557    1.6307   -7.3937 H         1 UNK         0.3459 
    134 H134       35.6008   -0.4871   -4.2833 H         1 UNK         0.0612 
    135 H135       35.8105   -2.0795   -4.9664 H         1 UNK         0.0612 
    136 H136       34.3873   -4.1602   -4.0083 H         1 UNK         0.0624 
    137 H137       33.6750   -3.6104   -5.5069 H         1 UNK         0.0624 
@<TRIPOS>BOND
     1    1    2 1    
     2    1   72 1    
     3    1   73 1    
     4    1   74 1    
     5    2    3 2    
     6    2    4 am   BACKBONE|DICT|INTERRES
     7    4    5 1    
     8    4   75 1    
     9    5    6 1    
    10    5   35 1    
    11    5   76 1    
    12    6    7 1    
    13    6   77 1    
    14    6   78 1    
    15    7    8 1    
    16    8    9 1    
    17    8   79 1    
    18    8   80 1    
    19    9   10 ar   
    20    9   14 ar   
    21   10   11 ar   
    22   10   81 1    
    23   11   12 ar   
    24   11   71 1    
    25   12   13 ar   
    26   12   82 1    
    27   13   14 ar   
    28   13   15 1    
    29   14   83 1    
    30   15   16 1    
    31   15   84 1    
    32   15   85 1    
    33   16   17 1    
    34   17   18 1    
    35   17   86 1    
    36   17   87 1    
    37   18   19 1    
    38   18   37 1    
    39   18   88 1    
    40   19   20 am   BACKBONE|DICT|INTERRES
    41   19   89 1    
    42   20   21 2    
    43   20   22 1    
    44   22   23 1    
    45   22   24 1    
    46   22   90 1    
    47   23   91 1    
    48   23   92 1    
    49   23   93 1    
    50   24   25 am   BACKBONE|DICT|INTERRES
    51   24   94 1    
    52   25   26 2    
    53   25   27 1    
    54   27   28 1    
    55   27   29 1    
    56   27   95 1    
    57   28   96 1    
    58   28   97 1    
    59   28   98 1    
    60   29   30 am   BACKBONE|DICT|INTERRES
    61   29   99 1    
    62   30   31 2    
    63   30   32 1    
    64   32   33 1    
    65   32   34 1    
    66   32  100 1    
    67   33  101 1    
    68   33  102 1    
    69   33  103 1    
    70   34   35 am   BACKBONE|DICT|INTERRES
    71   34  104 1    
    72   35   36 2    
    73   37   38 2    
    74   37   39 am   BACKBONE|DICT|INTERRES
    75   39   40 1    
    76   39  105 1    
    77   40   41 1    
    78   40   42 1    
    79   40  106 1    
    80   41  107 1    
    81   41  108 1    
    82   41  109 1    
    83   42   43 2    
    84   42   44 am   BACKBONE|DICT|INTERRES
    85   44   45 1    
    86   44  110 1    
    87   45   46 1    
    88   45   47 1    
    89   45  111 1    
    90   46  112 1    
    91   46  113 1    
    92   46  114 1    
    93   47   48 2    
    94   47   49 am   BACKBONE|DICT|INTERRES
    95   49   50 1    
    96   49  115 1    
    97   50   51 1    
    98   50   52 1    
    99   50  116 1    
   100   51  117 1    
   101   51  118 1    
   102   51  119 1    
   103   52   53 2    
   104   52   54 am   BACKBONE|DICT|INTERRES
   105   54   55 1    
   106   54  120 1    
   107   55   56 1    
   108   55   57 1    
   109   55  121 1    
   110   56  122 1    
   111   56  123 1    
   112   56  124 1    
   113   57   58 2    
   114   57   59 am   BACKBONE|DICT|INTERRES
   115   59   60 1    
   116   59  125 1    
   117   60   61 1    
   118   60   62 1    
   119   60  126 1    
   120   61  127 1    
   121   61  128 1    
   122   61  129 1    
   123   62   63 2    
   124   62   64 am   BACKBONE|DICT|INTERRES
   125   64   65 1    
   126   64  130 1    
   127   65   66 1    
   128   65   69 1    
   129   65  131 1    
   130   66   67 am   BACKBONE|DICT|INTERRES
   131   66   68 2    
   132   67  132 1    
   133   67  133 1    
   134   69   70 1    
   135   69  134 1    
   136   69  135 1    
   137   70   71 1    
   138   71  136 1    
   139   71  137 1    
@<TRIPOS>SUBSTRUCTURE
     1 UNK         1 GROUP             0       ****    0 ROOT    
