@<TRIPOS>MOLECULE
3R137
137   139    1
SMALL
USER_CHARGES


@<TRIPOS>ATOM
      1 CA         29.4665    1.2812    1.8097 C.3       0 UNK        -0.2020 
      2 C          29.2144   -0.2163    1.9640 C.2       0 UNK         0.4855 
      3 O          29.0624   -0.6904    3.0878 O.2       0 UNK        -0.5197 
      4 N          29.1630   -1.0035    0.8800 N.am      1 UNK        -0.4892 
      5 CA         29.2768   -0.5947   -0.5281 C.3       1 UNK         0.0835 
      6 C6         29.7185   -1.7826   -1.4196 C.3       12 UNK        -0.0855 
      7 S7         28.5641   -3.2006   -1.3989 S.3       12 UNK        -0.2931 
      8 C8         29.6312   -4.5359   -2.0220 C.3       12 UNK         0.0378 
      9 C9         29.8198   -4.4548   -3.5302 C.ar      12 UNK        -0.0802 
     10 C10        30.9357   -3.8107   -4.0737 C.ar      12 UNK        -0.0944 
     11 C11        31.1295   -3.7587   -5.4618 C.ar      12 UNK        -0.0787 
     12 C12        30.1878   -4.3714   -6.2994 C.ar      12 UNK        -0.0862 
     13 C13        29.0778   -5.0373   -5.7666 C.ar      12 UNK        -0.0733 
     14 C14        28.8944   -5.0632   -4.3818 C.ar      12 UNK        -0.0832 
     15 C15        28.1203   -5.8073   -6.6677 C.3       12 UNK         0.0240 
     16 S16        26.4822   -5.0163   -6.7980 S.3       12 UNK        -0.2522 
     17 C17        26.4382   -4.4632   -8.5438 C.3       12 UNK        -0.0967 
     18 CA         26.2226   -2.9412   -8.7248 C.3       5 UNK         0.0660 
     19 N          24.9995   -2.4667   -8.0737 N.am      5 UNK        -0.4015 
     20 C          24.4636   -1.2509   -8.2506 C.2       4 UNK         0.4946 
     21 O          24.9038   -0.4138   -9.0391 O.2       4 UNK        -0.5353 
     22 CA         23.2669   -0.8926   -7.3537 C.3       4 UNK         0.0277 
     23 CB         21.9573   -1.4266   -7.9553 C.3       4 UNK        -0.1981 
     24 N          23.4185   -1.3795   -5.9766 N.am      4 UNK        -0.4209 
     25 C          24.3767   -0.9653   -5.1367 C.2       3 UNK         0.4942 
     26 O          25.2335   -0.1302   -5.4350 O.2       3 UNK        -0.5208 
     27 CA         24.4145   -1.6190   -3.7529 C.3       3 UNK         0.0250 
     28 CB         25.1963   -2.9457   -3.7893 C.3       3 UNK        -0.1990 
     29 N          25.0547   -0.6949   -2.8211 N.am      3 UNK        -0.4232 
     30 C          24.7981   -0.6177   -1.5122 C.2       2 UNK         0.4993 
     31 O          24.0213   -1.3698   -0.9194 O.2       2 UNK        -0.5286 
     32 CA         25.5641    0.4595   -0.7302 C.3       2 UNK         0.0209 
     33 CB         24.8222    0.8971    0.5469 C.3       2 UNK        -0.1931 
     34 N          26.8742   -0.0657   -0.3563 N.am      2 UNK        -0.4546 
     35 C          27.9973    0.0847   -1.0701 C.2       1 UNK         0.5154 
     36 O          28.0554    0.7439   -2.1080 O.2       1 UNK        -0.5181 
     37 C          27.4592   -2.1321   -8.2925 C.2       5 UNK         0.5014 
     38 O          28.2925   -1.8072   -9.1368 O.2       5 UNK        -0.5248 
     39 N          27.5353   -1.7909   -6.9990 N.am      6 UNK        -0.4434 
     40 CA         28.6025   -0.9794   -6.4236 C.3       6 UNK         0.0363 
     41 CB         28.5335   -1.0293   -4.8940 C.3       6 UNK        -0.1936 
     42 C          28.5644    0.4702   -6.9203 C.2       6 UNK         0.5081 
     43 O          29.6180    1.0295   -7.2219 O.2       6 UNK        -0.5248 
     44 N          27.3562    1.0378   -7.0335 N.am      7 UNK        -0.4718 
     45 CA         27.1109    2.3561   -7.6184 C.3       7 UNK         0.0273 
     46 CB         25.6423    2.7537   -7.4019 C.3       7 UNK        -0.1935 
     47 C          27.4867    2.4134   -9.1085 C.2       7 UNK         0.5018 
     48 O          28.1262    3.3779   -9.5280 O.2       7 UNK        -0.5186 
     49 N          27.1221    1.3685   -9.8673 N.am      8 UNK        -0.4240 
     50 CA         27.4786    1.2030  -11.2794 C.3       8 UNK         0.0235 
     51 CB         26.6913    0.0270  -11.8795 C.3       8 UNK        -0.2000 
     52 C          28.9905    1.0182  -11.5003 C.2       8 UNK         0.4941 
     53 O          29.5451    1.6297  -12.4142 O.2       8 UNK        -0.5273 
     54 N          29.6314    0.1963  -10.6571 N.am      9 UNK        -0.4262 
     55 CA         31.0748   -0.0611  -10.6768 C.3       9 UNK         0.0264 
     56 CB         31.3708   -1.3198   -9.8435 C.3       9 UNK        -0.1955 
     57 C          31.9277    1.1133  -10.1635 C.2       9 UNK         0.5031 
     58 O          33.1223    1.1483  -10.4621 O.2       9 UNK        -0.5390 
     59 N          31.3170    2.0184   -9.3832 N.am      10 UNK        -0.4204 
     60 CA         31.9395    3.0969   -8.6067 C.3       10 UNK         0.0237 
     61 CB         32.6060    4.1460   -9.5226 C.3       10 UNK        -0.1985 
     62 C          32.8820    2.5261   -7.5294 C.2       10 UNK         0.4970 
     63 O          34.0493    2.9134   -7.4500 O.2       10 UNK        -0.4914 
     64 N          32.3475    1.5836   -6.7416 N.am      11 UNK        -0.4285 
     65 CA         33.0626    0.8284   -5.7001 C.3       11 UNK         0.1007 
     66 C          33.5320    1.6665   -4.4738 C.2       11 UNK         0.5703 
     67 N          32.9972    2.8601   -4.2431 N.am      11 UNK        -0.7361 
     68 O          34.4012    1.2298   -3.7235 O.2       11 UNK        -0.4986 
     69 C69        32.2437   -0.4189   -5.2587 C.3       12 UNK        -0.0947 
     70 S70        33.2685   -1.9115   -5.0579 S.3       12 UNK        -0.2240 
     71 C71        32.3769   -3.1299   -6.0929 C.3       12 UNK         0.0194 
     72 H72        30.4146    1.4692    1.3072 H         1 UNK         0.0906 
     73 H73        28.6655    1.7602    1.2480 H         1 UNK         0.0906 
     74 H74        29.5136    1.7609    2.7873 H         1 UNK         0.0906 
     75 H75        29.0007   -1.9928    1.0119 H         1 UNK         0.3140 
     76 H76        30.0660    0.1558   -0.6010 H         1 UNK         0.1085 
     77 H77        29.8655   -1.4585   -2.4492 H         1 UNK         0.0836 
     78 H78        30.6981   -2.1287   -1.0861 H         1 UNK         0.0836 
     79 H79        29.1773   -5.4934   -1.7622 H         1 UNK         0.0731 
     80 H80        30.5947   -4.5134   -1.5105 H         1 UNK         0.0731 
     81 H81        31.6585   -3.3679   -3.4039 H         1 UNK         0.1312 
     82 H82        30.3395   -4.3614   -7.3703 H         1 UNK         0.1406 
     83 H83        28.0396   -5.5789   -3.9652 H         1 UNK         0.1631 
     84 H84        27.9802   -6.8068   -6.2532 H         1 UNK         0.0717 
     85 H85        28.5616   -5.9628   -7.6524 H         1 UNK         0.0717 
     86 H86        27.3399   -4.7761   -9.0727 H         1 UNK         0.0934 
     87 H87        25.6242   -4.9998   -9.0339 H         1 UNK         0.0934 
     88 H88        26.0966   -2.7609   -9.7947 H         1 UNK         0.0739 
     89 H89        24.5768   -3.0948   -7.4062 H         1 UNK         0.3093 
     90 H90        23.2037    0.1971   -7.3151 H         1 UNK         0.0818 
     91 H91        21.0927   -1.0981   -7.3782 H         1 UNK         0.0819 
     92 H92        21.8204   -1.0618   -8.9745 H         1 UNK         0.0819 
     93 H93        21.9411   -2.5165   -7.9947 H         1 UNK         0.0819 
     94 H94        22.7495   -2.0666   -5.6582 H         1 UNK         0.3041 
     95 H95        23.3870   -1.8064   -3.4331 H         1 UNK         0.0784 
     96 H96        24.7389   -3.6564   -4.4783 H         1 UNK         0.0793 
     97 H97        26.2302   -2.8012   -4.1044 H         1 UNK         0.0793 
     98 H98        25.2173   -3.4185   -2.8071 H         1 UNK         0.0793 
     99 H99        25.6899   -0.0347   -3.2544 H         1 UNK         0.3024 
    100 H100       25.6742    1.3385   -1.3703 H         1 UNK         0.1171 
    101 H101       25.3565    1.6977    1.0586 H         1 UNK         0.0786 
    102 H102       23.8262    1.2728    0.3088 H         1 UNK         0.0786 
    103 H103       24.7009    0.0737    1.2521 H         1 UNK         0.0786 
    104 H104       26.9080   -0.6642    0.4569 H         1 UNK         0.2977 
    105 H105       26.7995   -2.0870   -6.3766 H         1 UNK         0.3127 
    106 H106       29.5469   -1.4213   -6.7422 H         1 UNK         0.0770 
    107 H107       27.5958   -0.6311   -4.5107 H         1 UNK         0.0814 
    108 H108       28.6395   -2.0479   -4.5247 H         1 UNK         0.0814 
    109 H109       29.3315   -0.4326   -4.4544 H         1 UNK         0.0814 
    110 H110       26.5472    0.5283   -6.6869 H         1 UNK         0.2983 
    111 H111       27.7411    3.0750   -7.0902 H         1 UNK         0.0947 
    112 H112       25.3882    2.7658   -6.3417 H         1 UNK         0.0806 
    113 H113       24.9584    2.0660   -7.8997 H         1 UNK         0.0806 
    114 H114       25.4464    3.7519   -7.7954 H         1 UNK         0.0806 
    115 H115       26.5436    0.6435   -9.4514 H         1 UNK         0.3000 
    116 H116       27.1784    2.1129  -11.8036 H         1 UNK         0.0850 
    117 H117       26.9186   -0.0950  -12.9394 H         1 UNK         0.0810 
    118 H118       25.6161    0.1858  -11.7939 H         1 UNK         0.0810 
    119 H119       26.9293   -0.9143  -11.3836 H         1 UNK         0.0810 
    120 H120       29.0863   -0.3399   -9.9840 H         1 UNK         0.3040 
    121 H121       31.3722   -0.2556  -11.7094 H         1 UNK         0.0766 
    122 H122       31.0724   -1.1884   -8.8027 H         1 UNK         0.0812 
    123 H123       32.4357   -1.5565   -9.8511 H         1 UNK         0.0812 
    124 H124       30.8431   -2.1893  -10.2358 H         1 UNK         0.0812 
    125 H125       30.3448    1.8423   -9.1592 H         1 UNK         0.3205 
    126 H126       31.1274    3.5949   -8.0745 H         1 UNK         0.0754 
    127 H127       32.9599    4.9986   -8.9417 H         1 UNK         0.0769 
    128 H128       31.9026    4.5269  -10.2631 H         1 UNK         0.0769 
    129 H129       33.4659    3.7391  -10.0551 H         1 UNK         0.0769 
    130 H130       31.3663    1.3460   -6.8774 H         1 UNK         0.2981 
    131 H131       33.9780    0.4810   -6.1832 H         1 UNK         0.0541 
    132 H132       32.2855    3.2274   -4.8534 H         1 UNK         0.3459 
    133 H133       33.3122    3.3975   -3.4512 H         1 UNK         0.3459 
    134 H134       31.4860   -0.6465   -6.0044 H         1 UNK         0.0612 
    135 H135       31.6949   -0.2405   -4.3323 H         1 UNK         0.0612 
    136 H136       33.0719   -3.9371   -6.3263 H         1 UNK         0.0624 
    137 H137       32.1223   -2.6650   -7.0463 H         1 UNK         0.0624 
@<TRIPOS>BOND
     1    1    2 1    
     2    1   72 1    
     3    1   73 1    
     4    1   74 1    
     5    2    3 2    
     6    2    4 am   BACKBONE|DICT|INTERRES
     7    4    5 1    
     8    4   75 1    
     9    5    6 1    
    10    5   35 1    
    11    5   76 1    
    12    6    7 1    
    13    6   77 1    
    14    6   78 1    
    15    7    8 1    
    16    8    9 1    
    17    8   79 1    
    18    8   80 1    
    19    9   10 ar   
    20    9   14 ar   
    21   10   11 ar   
    22   10   81 1    
    23   11   12 ar   
    24   11   71 1    
    25   12   13 ar   
    26   12   82 1    
    27   13   14 ar   
    28   13   15 1    
    29   14   83 1    
    30   15   16 1    
    31   15   84 1    
    32   15   85 1    
    33   16   17 1    
    34   17   18 1    
    35   17   86 1    
    36   17   87 1    
    37   18   19 1    
    38   18   37 1    
    39   18   88 1    
    40   19   20 am   BACKBONE|DICT|INTERRES
    41   19   89 1    
    42   20   21 2    
    43   20   22 1    
    44   22   23 1    
    45   22   24 1    
    46   22   90 1    
    47   23   91 1    
    48   23   92 1    
    49   23   93 1    
    50   24   25 am   BACKBONE|DICT|INTERRES
    51   24   94 1    
    52   25   26 2    
    53   25   27 1    
    54   27   28 1    
    55   27   29 1    
    56   27   95 1    
    57   28   96 1    
    58   28   97 1    
    59   28   98 1    
    60   29   30 am   BACKBONE|DICT|INTERRES
    61   29   99 1    
    62   30   31 2    
    63   30   32 1    
    64   32   33 1    
    65   32   34 1    
    66   32  100 1    
    67   33  101 1    
    68   33  102 1    
    69   33  103 1    
    70   34   35 am   BACKBONE|DICT|INTERRES
    71   34  104 1    
    72   35   36 2    
    73   37   38 2    
    74   37   39 am   BACKBONE|DICT|INTERRES
    75   39   40 1    
    76   39  105 1    
    77   40   41 1    
    78   40   42 1    
    79   40  106 1    
    80   41  107 1    
    81   41  108 1    
    82   41  109 1    
    83   42   43 2    
    84   42   44 am   BACKBONE|DICT|INTERRES
    85   44   45 1    
    86   44  110 1    
    87   45   46 1    
    88   45   47 1    
    89   45  111 1    
    90   46  112 1    
    91   46  113 1    
    92   46  114 1    
    93   47   48 2    
    94   47   49 am   BACKBONE|DICT|INTERRES
    95   49   50 1    
    96   49  115 1    
    97   50   51 1    
    98   50   52 1    
    99   50  116 1    
   100   51  117 1    
   101   51  118 1    
   102   51  119 1    
   103   52   53 2    
   104   52   54 am   BACKBONE|DICT|INTERRES
   105   54   55 1    
   106   54  120 1    
   107   55   56 1    
   108   55   57 1    
   109   55  121 1    
   110   56  122 1    
   111   56  123 1    
   112   56  124 1    
   113   57   58 2    
   114   57   59 am   BACKBONE|DICT|INTERRES
   115   59   60 1    
   116   59  125 1    
   117   60   61 1    
   118   60   62 1    
   119   60  126 1    
   120   61  127 1    
   121   61  128 1    
   122   61  129 1    
   123   62   63 2    
   124   62   64 am   BACKBONE|DICT|INTERRES
   125   64   65 1    
   126   64  130 1    
   127   65   66 1    
   128   65   69 1    
   129   65  131 1    
   130   66   67 am   BACKBONE|DICT|INTERRES
   131   66   68 2    
   132   67  132 1    
   133   67  133 1    
   134   69   70 1    
   135   69  134 1    
   136   69  135 1    
   137   70   71 1    
   138   71  136 1    
   139   71  137 1    
@<TRIPOS>SUBSTRUCTURE
     1 UNK         1 GROUP             0       ****    0 ROOT    
