@<TRIPOS>MOLECULE
3R137
137   139    1
SMALL
USER_CHARGES


@<TRIPOS>ATOM
      1 CA         28.5866   -3.6382    1.8672 C.3       0 UNK        -0.2020 
      2 C          28.3657   -2.9156    0.5476 C.2       0 UNK         0.4855 
      3 O          28.0667   -3.5627   -0.4566 O.2       0 UNK        -0.5197 
      4 N          28.5176   -1.5830    0.5441 N.am      1 UNK        -0.4892 
      5 CA         28.3490   -0.6408   -0.5777 C.3       1 UNK         0.0835 
      6 C6         29.2847   -0.8937   -1.7926 C.3       12 UNK        -0.0855 
      7 S7         31.0659   -0.8529   -1.3782 S.3       12 UNK        -0.2931 
      8 C8         31.5362   -2.6151   -1.2741 C.3       12 UNK         0.0378 
      9 C9         31.5954   -3.3064   -2.6305 C.ar      12 UNK        -0.0802 
     10 C10        32.8028   -3.3894   -3.3307 C.ar      12 UNK        -0.0944 
     11 C11        32.8724   -4.0685   -4.5519 C.ar      12 UNK        -0.0787 
     12 C12        31.7140   -4.6399   -5.0895 C.ar      12 UNK        -0.0862 
     13 C13        30.4981   -4.5520   -4.4035 C.ar      12 UNK        -0.0733 
     14 C14        30.4541   -3.9104   -3.1644 C.ar      12 UNK        -0.0832 
     15 C15        29.2283   -5.1612   -4.9813 C.3       12 UNK         0.0240 
     16 S16        28.6969   -4.3371   -6.5148 S.3       12 UNK        -0.2522 
     17 C17        28.5479   -2.5883   -6.0095 C.3       12 UNK        -0.0967 
     18 CA         27.6374   -1.8139   -6.9951 C.3       5 UNK         0.0660 
     19 N          26.2237   -2.1183   -6.7806 N.am      5 UNK        -0.4015 
     20 C          25.3556   -2.4525   -7.7441 C.2       4 UNK         0.4946 
     21 O          25.6627   -2.6176   -8.9257 O.2       4 UNK        -0.5353 
     22 CA         23.8801   -2.6220   -7.3303 C.3       4 UNK         0.0277 
     23 CB         23.5732   -4.1003   -7.0400 C.3       4 UNK        -0.1981 
     24 N          23.4812   -1.8115   -6.1746 N.am      4 UNK        -0.4209 
     25 C          23.5492   -0.4738   -6.1134 C.2       3 UNK         0.4942 
     26 O          23.9383    0.2348   -7.0390 O.2       3 UNK        -0.5208 
     27 CA         23.1813    0.1875   -4.7756 C.3       3 UNK         0.0250 
     28 CB         21.6787    0.5074   -4.7352 C.3       3 UNK        -0.1990 
     29 N          23.5507   -0.5800   -3.5787 N.am      3 UNK        -0.4232 
     30 C          24.7635   -1.0783   -3.2963 C.2       2 UNK         0.4993 
     31 O          25.7224   -1.0590   -4.0752 O.2       2 UNK        -0.5286 
     32 CA         24.9074   -1.7647   -1.9300 C.3       2 UNK         0.0209 
     33 CB         24.5501   -3.2552   -2.0476 C.3       2 UNK        -0.1931 
     34 N          26.2649   -1.6495   -1.3994 N.am      2 UNK        -0.4546 
     35 C          26.8783   -0.5178   -1.0327 C.2       1 UNK         0.5154 
     36 O          26.3284    0.5844   -1.0223 O.2       1 UNK        -0.5181 
     37 C          27.8646   -0.2940   -6.9133 C.2       5 UNK         0.5014 
     38 O          28.5258    0.2593   -7.7929 O.2       5 UNK        -0.5248 
     39 N          27.2995    0.3639   -5.8894 N.am      6 UNK        -0.4434 
     40 CA         27.5023    1.7870   -5.5970 C.3       6 UNK         0.0363 
     41 CB         26.8862    2.1229   -4.2306 C.3       6 UNK        -0.1936 
     42 C          26.9913    2.7577   -6.6784 C.2       6 UNK         0.5081 
     43 O          27.5165    3.8671   -6.7775 O.2       6 UNK        -0.5248 
     44 N          25.9889    2.3502   -7.4709 N.am      7 UNK        -0.4718 
     45 CA         25.4970    3.1309   -8.6107 C.3       7 UNK         0.0273 
     46 CB         24.0669    2.6919   -8.9632 C.3       7 UNK        -0.1935 
     47 C          26.4041    3.0295   -9.8503 C.2       7 UNK         0.5018 
     48 O          26.3100    3.8961  -10.7208 O.2       7 UNK        -0.5186 
     49 N          27.2407    1.9837   -9.9322 N.am      8 UNK        -0.4240 
     50 CA         28.1581    1.7596  -11.0496 C.3       8 UNK         0.0235 
     51 CB         28.4481    0.2560  -11.2042 C.3       8 UNK        -0.2000 
     52 C          29.4521    2.5643  -10.8704 C.2       8 UNK         0.4941 
     53 O          29.8180    3.3249  -11.7675 O.2       8 UNK        -0.5273 
     54 N          30.1039    2.3930   -9.7147 N.am      9 UNK        -0.4262 
     55 CA         31.3510    3.0411   -9.3067 C.3       9 UNK         0.0264 
     56 CB         32.5273    2.6353  -10.2303 C.3       9 UNK        -0.1955 
     57 C          31.5842    2.6800   -7.8311 C.2       9 UNK         0.5031 
     58 O          30.6146    2.5589   -7.0827 O.2       9 UNK        -0.5390 
     59 N          32.8464    2.4757   -7.4288 N.am      10 UNK        -0.4204 
     60 CA         33.2007    1.8820   -6.1340 C.3       10 UNK         0.0237 
     61 CB         34.7074    2.0575   -5.8820 C.3       10 UNK        -0.1985 
     62 C          32.8057    0.3942   -6.0476 C.2       10 UNK         0.4970 
     63 O          32.4555   -0.0742   -4.9658 O.2       10 UNK        -0.4914 
     64 N          32.8585   -0.2964   -7.1925 N.am      11 UNK        -0.4285 
     65 CA         32.4202   -1.6785   -7.4058 C.3       11 UNK         0.1007 
     66 C          31.5247   -1.7401   -8.6710 C.2       11 UNK         0.5703 
     67 N          30.6667   -2.7432   -8.7827 N.am      11 UNK        -0.7361 
     68 O          31.6327   -0.9144   -9.5764 O.2       11 UNK        -0.4986 
     69 C69        33.6180   -2.6558   -7.5490 C.3       12 UNK        -0.0947 
     70 S70        34.7222   -2.6829   -6.0976 S.3       12 UNK        -0.2240 
     71 C71        34.2098   -4.2157   -5.2639 C.3       12 UNK         0.0194 
     72 H72        29.3867   -4.3705    1.7628 H         1 UNK         0.0906 
     73 H73        27.6793   -4.1648    2.1619 H         1 UNK         0.0906 
     74 H74        28.8574   -2.9524    2.6698 H         1 UNK         0.0906 
     75 H75        28.7527   -1.1341    1.4190 H         1 UNK         0.3140 
     76 H76        28.6167    0.3366   -0.1718 H         1 UNK         0.1085 
     77 H77        29.1258   -0.1194   -2.5459 H         1 UNK         0.0836 
     78 H78        29.0270   -1.8237   -2.2900 H         1 UNK         0.0836 
     79 H79        32.5142   -2.6759   -0.7945 H         1 UNK         0.0731 
     80 H80        30.8568   -3.1492   -0.6132 H         1 UNK         0.0731 
     81 H81        33.6954   -2.9392   -2.9182 H         1 UNK         0.1312 
     82 H82        31.7567   -5.1593   -6.0370 H         1 UNK         0.1406 
     83 H83        29.5256   -3.8886   -2.6122 H         1 UNK         0.1631 
     84 H84        28.4100   -5.1205   -4.2604 H         1 UNK         0.0717 
     85 H85        29.4006   -6.2180   -5.1895 H         1 UNK         0.0717 
     86 H86        28.1630   -2.5270   -4.9894 H         1 UNK         0.0934 
     87 H87        29.5521   -2.1627   -5.9808 H         1 UNK         0.0934 
     88 H88        27.9263   -2.1000   -8.0089 H         1 UNK         0.0739 
     89 H89        25.8739   -1.9687   -5.8400 H         1 UNK         0.3093 
     90 H90        23.2691   -2.3035   -8.1776 H         1 UNK         0.0818 
     91 H91        23.8353   -4.7276   -7.8934 H         1 UNK         0.0819 
     92 H92        24.1360   -4.4685   -6.1811 H         1 UNK         0.0819 
     93 H93        22.5127   -4.2556   -6.8408 H         1 UNK         0.0819 
     94 H94        23.1561   -2.3088   -5.3585 H         1 UNK         0.3041 
     95 H95        23.7231    1.1329   -4.7299 H         1 UNK         0.0784 
     96 H96        21.3808    1.0944   -5.6055 H         1 UNK         0.0793 
     97 H97        21.0717   -0.3989   -4.7302 H         1 UNK         0.0793 
     98 H98        21.4195    1.0912   -3.8517 H         1 UNK         0.0793 
     99 H99        22.8247   -0.6774   -2.8830 H         1 UNK         0.3024 
    100 H100       24.2297   -1.2859   -1.2199 H         1 UNK         0.1171 
    101 H101       25.2114   -3.7733   -2.7440 H         1 UNK         0.0786 
    102 H102       24.6231   -3.7574   -1.0826 H         1 UNK         0.0786 
    103 H103       23.5282   -3.3899   -2.4048 H         1 UNK         0.0786 
    104 H104       26.8061   -2.5070   -1.3176 H         1 UNK         0.2977 
    105 H105       26.7455   -0.1578   -5.2107 H         1 UNK         0.3127 
    106 H106       28.5798    1.9427   -5.5187 H         1 UNK         0.0770 
    107 H107       27.0587    3.1679   -3.9699 H         1 UNK         0.0814 
    108 H108       25.8101    1.9577   -4.2193 H         1 UNK         0.0814 
    109 H109       27.3262    1.5170   -3.4394 H         1 UNK         0.0814 
    110 H110       25.5446    1.4520   -7.3044 H         1 UNK         0.2983 
    111 H111       25.4590    4.1839   -8.3221 H         1 UNK         0.0947 
    112 H112       24.0361    1.6567   -9.3054 H         1 UNK         0.0806 
    113 H113       23.6543    3.3100   -9.7618 H         1 UNK         0.0806 
    114 H114       23.3997    2.7832   -8.1059 H         1 UNK         0.0806 
    115 H115       27.3198    1.3538   -9.1417 H         1 UNK         0.3000 
    116 H116       27.6800    2.0957  -11.9727 H         1 UNK         0.0850 
    117 H117       29.0894    0.0729  -12.0671 H         1 UNK         0.0810 
    118 H118       27.5298   -0.3118  -11.3552 H         1 UNK         0.0810 
    119 H119       28.9567   -0.1585  -10.3338 H         1 UNK         0.0810 
    120 H120       29.6996    1.7873   -9.0046 H         1 UNK         0.3040 
    121 H121       31.2088    4.1219   -9.3603 H         1 UNK         0.0766 
    122 H122       32.7189    1.5623  -10.1921 H         1 UNK         0.0812 
    123 H123       33.4482    3.1531   -9.9608 H         1 UNK         0.0812 
    124 H124       32.3332    2.8928  -11.2709 H         1 UNK         0.0812 
    125 H125       33.5967    2.6258   -8.0879 H         1 UNK         0.3205 
    126 H126       32.6578    2.4159   -5.3509 H         1 UNK         0.0754 
    127 H127       34.9891    1.6426   -4.9131 H         1 UNK         0.0769 
    128 H128       34.9895    3.1106   -5.8766 H         1 UNK         0.0769 
    129 H129       35.3074    1.5507   -6.6390 H         1 UNK         0.0769 
    130 H130       33.0989    0.1924   -8.0420 H         1 UNK         0.2981 
    131 H131       31.8103   -1.9947   -6.5585 H         1 UNK         0.0541 
    132 H132       30.1029   -2.8026   -9.6150 H         1 UNK         0.3459 
    133 H133       30.5545   -3.4304   -8.0535 H         1 UNK         0.3459 
    134 H134       34.2244   -2.3837   -8.4149 H         1 UNK         0.0612 
    135 H135       33.2625   -3.6697   -7.7405 H         1 UNK         0.0612 
    136 H136       34.1826   -5.0351   -5.9838 H         1 UNK         0.0624 
    137 H137       34.9742   -4.4831   -4.5329 H         1 UNK         0.0624 
@<TRIPOS>BOND
     1    1    2 1    
     2    1   72 1    
     3    1   73 1    
     4    1   74 1    
     5    2    3 2    
     6    2    4 am   BACKBONE|DICT|INTERRES
     7    4    5 1    
     8    4   75 1    
     9    5    6 1    
    10    5   35 1    
    11    5   76 1    
    12    6    7 1    
    13    6   77 1    
    14    6   78 1    
    15    7    8 1    
    16    8    9 1    
    17    8   79 1    
    18    8   80 1    
    19    9   10 ar   
    20    9   14 ar   
    21   10   11 ar   
    22   10   81 1    
    23   11   12 ar   
    24   11   71 1    
    25   12   13 ar   
    26   12   82 1    
    27   13   14 ar   
    28   13   15 1    
    29   14   83 1    
    30   15   16 1    
    31   15   84 1    
    32   15   85 1    
    33   16   17 1    
    34   17   18 1    
    35   17   86 1    
    36   17   87 1    
    37   18   19 1    
    38   18   37 1    
    39   18   88 1    
    40   19   20 am   BACKBONE|DICT|INTERRES
    41   19   89 1    
    42   20   21 2    
    43   20   22 1    
    44   22   23 1    
    45   22   24 1    
    46   22   90 1    
    47   23   91 1    
    48   23   92 1    
    49   23   93 1    
    50   24   25 am   BACKBONE|DICT|INTERRES
    51   24   94 1    
    52   25   26 2    
    53   25   27 1    
    54   27   28 1    
    55   27   29 1    
    56   27   95 1    
    57   28   96 1    
    58   28   97 1    
    59   28   98 1    
    60   29   30 am   BACKBONE|DICT|INTERRES
    61   29   99 1    
    62   30   31 2    
    63   30   32 1    
    64   32   33 1    
    65   32   34 1    
    66   32  100 1    
    67   33  101 1    
    68   33  102 1    
    69   33  103 1    
    70   34   35 am   BACKBONE|DICT|INTERRES
    71   34  104 1    
    72   35   36 2    
    73   37   38 2    
    74   37   39 am   BACKBONE|DICT|INTERRES
    75   39   40 1    
    76   39  105 1    
    77   40   41 1    
    78   40   42 1    
    79   40  106 1    
    80   41  107 1    
    81   41  108 1    
    82   41  109 1    
    83   42   43 2    
    84   42   44 am   BACKBONE|DICT|INTERRES
    85   44   45 1    
    86   44  110 1    
    87   45   46 1    
    88   45   47 1    
    89   45  111 1    
    90   46  112 1    
    91   46  113 1    
    92   46  114 1    
    93   47   48 2    
    94   47   49 am   BACKBONE|DICT|INTERRES
    95   49   50 1    
    96   49  115 1    
    97   50   51 1    
    98   50   52 1    
    99   50  116 1    
   100   51  117 1    
   101   51  118 1    
   102   51  119 1    
   103   52   53 2    
   104   52   54 am   BACKBONE|DICT|INTERRES
   105   54   55 1    
   106   54  120 1    
   107   55   56 1    
   108   55   57 1    
   109   55  121 1    
   110   56  122 1    
   111   56  123 1    
   112   56  124 1    
   113   57   58 2    
   114   57   59 am   BACKBONE|DICT|INTERRES
   115   59   60 1    
   116   59  125 1    
   117   60   61 1    
   118   60   62 1    
   119   60  126 1    
   120   61  127 1    
   121   61  128 1    
   122   61  129 1    
   123   62   63 2    
   124   62   64 am   BACKBONE|DICT|INTERRES
   125   64   65 1    
   126   64  130 1    
   127   65   66 1    
   128   65   69 1    
   129   65  131 1    
   130   66   67 am   BACKBONE|DICT|INTERRES
   131   66   68 2    
   132   67  132 1    
   133   67  133 1    
   134   69   70 1    
   135   69  134 1    
   136   69  135 1    
   137   70   71 1    
   138   71  136 1    
   139   71  137 1    
@<TRIPOS>SUBSTRUCTURE
     1 UNK         1 GROUP             0       ****    0 ROOT    
