@<TRIPOS>MOLECULE
3R137
137   139    1
SMALL
USER_CHARGES


@<TRIPOS>ATOM
      1 CA         24.4209   -5.3993    0.0741 C.3       0 UNK        -0.2020 
      2 C          25.6518   -4.5113   -0.0315 C.2       0 UNK         0.4855 
      3 O          26.6789   -4.8110    0.5772 O.2       0 UNK        -0.5197 
      4 N          25.5540   -3.4211   -0.7972 N.am      1 UNK        -0.4892 
      5 CA         26.5912   -2.4131   -1.0033 C.3       1 UNK         0.0835 
      6 C6         27.7688   -2.9173   -1.8853 C.3       12 UNK        -0.0855 
      7 S7         29.3391   -2.1084   -1.4236 S.3       12 UNK        -0.2931 
      8 C8         30.5537   -3.4429   -1.6694 C.3       12 UNK         0.0378 
      9 C9         30.9414   -3.5962   -3.1343 C.ar      12 UNK        -0.0802 
     10 C10        32.0795   -2.9529   -3.6327 C.ar      12 UNK        -0.0944 
     11 C11        32.4646   -3.1085   -4.9717 C.ar      12 UNK        -0.0787 
     12 C12        31.6880   -3.9179   -5.8083 C.ar      12 UNK        -0.0862 
     13 C13        30.5557   -4.5776   -5.3199 C.ar      12 UNK        -0.0733 
     14 C14        30.1879   -4.4122   -3.9816 C.ar      12 UNK        -0.0832 
     15 C15        29.7664   -5.5167   -6.2231 C.3       12 UNK         0.0240 
     16 S16        28.6701   -4.6293   -7.3722 S.3       12 UNK        -0.2522 
     17 C17        27.3704   -4.0123   -6.2467 C.3       12 UNK        -0.0967 
     18 CA         26.6896   -2.7116   -6.7564 C.3       5 UNK         0.0660 
     19 N          25.5447   -2.3033   -5.9408 N.am      5 UNK        -0.4015 
     20 C          24.3750   -2.9612   -5.9325 C.2       4 UNK         0.4946 
     21 O          24.1508   -3.9557   -6.6245 O.2       4 UNK        -0.5353 
     22 CA         23.2606   -2.4688   -4.9919 C.3       4 UNK         0.0277 
     23 CB         23.1910   -3.3657   -3.7454 C.3       4 UNK        -0.1981 
     24 N          23.4029   -1.0696   -4.5846 N.am      4 UNK        -0.4209 
     25 C          23.1482   -0.0281   -5.3918 C.2       3 UNK         0.4942 
     26 O          22.7541   -0.1502   -6.5521 O.2       3 UNK        -0.5208 
     27 CA         23.3631    1.3913   -4.8315 C.3       3 UNK         0.0250 
     28 CB         22.0147    2.0260   -4.4537 C.3       3 UNK        -0.1990 
     29 N          24.2656    1.4738   -3.6800 N.am      3 UNK        -0.4232 
     30 C          25.5473    1.0860   -3.6564 C.2       2 UNK         0.4993 
     31 O          26.1274    0.5913   -4.6249 O.2       2 UNK        -0.5286 
     32 CA         26.3002    1.2185   -2.3176 C.3       2 UNK         0.0209 
     33 CB         25.5338    2.0149   -1.2365 C.3       2 UNK        -0.1931 
     34 N          26.7016   -0.0904   -1.7845 N.am      2 UNK        -0.4546 
     35 C          25.9130   -1.1556   -1.5801 C.2       1 UNK         0.5154 
     36 O          24.7040   -1.1779   -1.8394 O.2       1 UNK        -0.5181 
     37 C          27.6744   -1.5452   -6.9078 C.2       5 UNK         0.5014 
     38 O          27.8588   -1.0601   -8.0237 O.2       5 UNK        -0.5248 
     39 N          28.2975   -1.1301   -5.7954 N.am      6 UNK        -0.4434 
     40 CA         29.4219   -0.1898   -5.7363 C.3       6 UNK         0.0363 
     41 CB         29.7734    0.1011   -4.2715 C.3       6 UNK        -0.1936 
     42 C          29.2459    1.1274   -6.5064 C.2       6 UNK         0.5081 
     43 O          30.2031    1.5855   -7.1313 O.2       6 UNK        -0.5248 
     44 N          28.0354    1.6970   -6.4687 N.am      7 UNK        -0.4718 
     45 CA         27.6800    2.9253   -7.1842 C.3       7 UNK         0.0273 
     46 CB         26.3254    3.4366   -6.6727 C.3       7 UNK        -0.1935 
     47 C          27.6404    2.7536   -8.7136 C.2       7 UNK         0.5018 
     48 O          27.9503    3.7047   -9.4312 O.2       7 UNK        -0.5186 
     49 N          27.2681    1.5552   -9.1834 N.am      8 UNK        -0.4240 
     50 CA         27.2413    1.1914  -10.6016 C.3       8 UNK         0.0235 
     51 CB         26.1650    0.1190  -10.8387 C.3       8 UNK        -0.2000 
     52 C          28.6164    0.6979  -11.0747 C.2       8 UNK         0.4941 
     53 O          29.0285    1.0267  -12.1874 O.2       8 UNK        -0.5273 
     54 N          29.3085   -0.0625  -10.2142 N.am      9 UNK        -0.4262 
     55 CA         30.6640   -0.5733  -10.4343 C.3       9 UNK         0.0264 
     56 CB         30.9679   -1.6503   -9.3783 C.3       9 UNK        -0.1955 
     57 C          31.7499    0.5189  -10.4067 C.2       9 UNK         0.5031 
     58 O          32.8381    0.2845  -10.9339 O.2       9 UNK        -0.5390 
     59 N          31.4434    1.6671   -9.7822 N.am      10 UNK        -0.4204 
     60 CA         32.3281    2.8030   -9.5002 C.3       10 UNK         0.0237 
     61 CB         32.8162    3.4776  -10.8005 C.3       10 UNK        -0.1985 
     62 C          33.4678    2.3978   -8.5476 C.2       10 UNK         0.4970 
     63 O          34.6390    2.6631   -8.8264 O.2       10 UNK        -0.4914 
     64 N          33.0889    1.7290   -7.4513 N.am      11 UNK        -0.4285 
     65 CA         33.9919    1.2344   -6.4052 C.3       11 UNK         0.1007 
     66 C          34.7139    2.3803   -5.6414 C.2       11 UNK         0.5703 
     67 N          35.9692    2.1833   -5.2624 N.am      11 UNK        -0.7361 
     68 O          34.1349    3.4290   -5.3618 O.2       11 UNK        -0.4986 
     69 C69        33.2355    0.2849   -5.4394 C.3       12 UNK        -0.0947 
     70 S70        34.3236   -0.9719   -4.6966 S.3       12 UNK        -0.2240 
     71 C71        33.7523   -2.4949   -5.5288 C.3       12 UNK         0.0194 
     72 H72        23.5925   -5.0216   -0.5252 H         1 UNK         0.0906 
     73 H73        24.6550   -6.4067   -0.2692 H         1 UNK         0.0906 
     74 H74        24.0899   -5.4606    1.1105 H         1 UNK         0.0906 
     75 H75        24.6701   -3.1592   -1.2192 H         1 UNK         0.3140 
     76 H76        26.9639   -2.1433   -0.0122 H         1 UNK         0.1085 
     77 H77        27.8973   -3.9925   -1.7575 H         1 UNK         0.0836 
     78 H78        27.5751   -2.7713   -2.9491 H         1 UNK         0.0836 
     79 H79        31.4407   -3.2143   -1.0765 H         1 UNK         0.0731 
     80 H80        30.1669   -4.3833   -1.2738 H         1 UNK         0.0731 
     81 H81        32.6735   -2.3466   -2.9636 H         1 UNK         0.1312 
     82 H82        31.9811   -4.0624   -6.8395 H         1 UNK         0.1406 
     83 H83        29.3241   -4.9336   -3.5929 H         1 UNK         0.1631 
     84 H84        29.1766   -6.2200   -5.6329 H         1 UNK         0.0717 
     85 H85        30.4625   -6.1225   -6.8051 H         1 UNK         0.0717 
     86 H86        26.6339   -4.8103   -6.1450 H         1 UNK         0.0934 
     87 H87        27.7781   -3.8615   -5.2481 H         1 UNK         0.0934 
     88 H88        26.3082   -2.9133   -7.7604 H         1 UNK         0.0739 
     89 H89        25.6431   -1.4441   -5.4105 H         1 UNK         0.3093 
     90 H90        22.3137   -2.5676   -5.5275 H         1 UNK         0.0818 
     91 H91        22.4437   -3.0117   -3.0350 H         1 UNK         0.0819 
     92 H92        22.9213   -4.3868   -4.0185 H         1 UNK         0.0819 
     93 H93        24.1520   -3.4146   -3.2353 H         1 UNK         0.0819 
     94 H94        23.7354   -0.8974   -3.6405 H         1 UNK         0.3041 
     95 H95        23.8012    1.9854   -5.6333 H         1 UNK         0.0784 
     96 H96        21.3248    2.0121   -5.2989 H         1 UNK         0.0793 
     97 H97        21.5341    1.4927   -3.6324 H         1 UNK         0.0793 
     98 H98        22.1348    3.0677   -4.1553 H         1 UNK         0.0793 
     99 H99        23.8672    1.8302   -2.8234 H         1 UNK         0.3024 
    100 H100       27.2158    1.7670   -2.5443 H         1 UNK         0.1171 
    101 H101       25.2687    3.0126   -1.5897 H         1 UNK         0.0786 
    102 H102       26.1494    2.1504   -0.3471 H         1 UNK         0.0786 
    103 H103       24.6175    1.5131   -0.9226 H         1 UNK         0.0786 
    104 H104       27.6870   -0.1986   -1.5795 H         1 UNK         0.2977 
    105 H105       28.0552   -1.5675   -4.9209 H         1 UNK         0.3127 
    106 H106       30.2672   -0.7072   -6.1888 H         1 UNK         0.0770 
    107 H107       28.8917    0.3659   -3.6903 H         1 UNK         0.0814 
    108 H108       30.4765    0.9294   -4.1819 H         1 UNK         0.0814 
    109 H109       30.2417   -0.7643   -3.8073 H         1 UNK         0.0814 
    110 H110       27.3120    1.2528   -5.9058 H         1 UNK         0.2983 
    111 H111       28.4392    3.6771   -6.9566 H         1 UNK         0.0947 
    112 H112       26.0732    4.3951   -7.1283 H         1 UNK         0.0806 
    113 H113       26.3331    3.5821   -5.5924 H         1 UNK         0.0806 
    114 H114       25.5239    2.7400   -6.9163 H         1 UNK         0.0806 
    115 H115       27.1144    0.8033   -8.5208 H         1 UNK         0.3000 
    116 H116       26.9775    2.0706  -11.1938 H         1 UNK         0.0850 
    117 H117       25.1786    0.4766  -10.5429 H         1 UNK         0.0810 
    118 H118       26.3700   -0.7958  -10.2814 H         1 UNK         0.0810 
    119 H119       26.1094   -0.1488  -11.8947 H         1 UNK         0.0810 
    120 H120       28.8501   -0.3446   -9.3484 H         1 UNK         0.3040 
    121 H121       30.6914   -1.0401  -11.4211 H         1 UNK         0.0766 
    122 H122       30.9755   -1.2344   -8.3711 H         1 UNK         0.0812 
    123 H123       31.9456   -2.1023   -9.5504 H         1 UNK         0.0812 
    124 H124       30.2304   -2.4531   -9.4022 H         1 UNK         0.0812 
    125 H125       30.5472    1.7013   -9.3117 H         1 UNK         0.3205 
    126 H126       31.7230    3.5327   -8.9596 H         1 UNK         0.0754 
    127 H127       33.3717    4.3898  -10.5796 H         1 UNK         0.0769 
    128 H128       31.9783    3.7547  -11.4404 H         1 UNK         0.0769 
    129 H129       33.4768    2.8282  -11.3755 H         1 UNK         0.0769 
    130 H130       32.0933    1.6064   -7.2866 H         1 UNK         0.2981 
    131 H131       34.7525    0.6525   -6.9301 H         1 UNK         0.0541 
    132 H132       36.4400    1.3143   -5.4616 H         1 UNK         0.3459 
    133 H133       36.4494    2.9099   -4.7552 H         1 UNK         0.3459 
    134 H134       32.4446   -0.2398   -5.9731 H         1 UNK         0.0612 
    135 H135       32.7413    0.8406   -4.6416 H         1 UNK         0.0612 
    136 H136       34.5424   -3.2413   -5.4403 H         1 UNK         0.0624 
    137 H137       33.6439   -2.2897   -6.5952 H         1 UNK         0.0624 
@<TRIPOS>BOND
     1    1    2 1    
     2    1   72 1    
     3    1   73 1    
     4    1   74 1    
     5    2    3 2    
     6    2    4 am   BACKBONE|DICT|INTERRES
     7    4    5 1    
     8    4   75 1    
     9    5    6 1    
    10    5   35 1    
    11    5   76 1    
    12    6    7 1    
    13    6   77 1    
    14    6   78 1    
    15    7    8 1    
    16    8    9 1    
    17    8   79 1    
    18    8   80 1    
    19    9   10 ar   
    20    9   14 ar   
    21   10   11 ar   
    22   10   81 1    
    23   11   12 ar   
    24   11   71 1    
    25   12   13 ar   
    26   12   82 1    
    27   13   14 ar   
    28   13   15 1    
    29   14   83 1    
    30   15   16 1    
    31   15   84 1    
    32   15   85 1    
    33   16   17 1    
    34   17   18 1    
    35   17   86 1    
    36   17   87 1    
    37   18   19 1    
    38   18   37 1    
    39   18   88 1    
    40   19   20 am   BACKBONE|DICT|INTERRES
    41   19   89 1    
    42   20   21 2    
    43   20   22 1    
    44   22   23 1    
    45   22   24 1    
    46   22   90 1    
    47   23   91 1    
    48   23   92 1    
    49   23   93 1    
    50   24   25 am   BACKBONE|DICT|INTERRES
    51   24   94 1    
    52   25   26 2    
    53   25   27 1    
    54   27   28 1    
    55   27   29 1    
    56   27   95 1    
    57   28   96 1    
    58   28   97 1    
    59   28   98 1    
    60   29   30 am   BACKBONE|DICT|INTERRES
    61   29   99 1    
    62   30   31 2    
    63   30   32 1    
    64   32   33 1    
    65   32   34 1    
    66   32  100 1    
    67   33  101 1    
    68   33  102 1    
    69   33  103 1    
    70   34   35 am   BACKBONE|DICT|INTERRES
    71   34  104 1    
    72   35   36 2    
    73   37   38 2    
    74   37   39 am   BACKBONE|DICT|INTERRES
    75   39   40 1    
    76   39  105 1    
    77   40   41 1    
    78   40   42 1    
    79   40  106 1    
    80   41  107 1    
    81   41  108 1    
    82   41  109 1    
    83   42   43 2    
    84   42   44 am   BACKBONE|DICT|INTERRES
    85   44   45 1    
    86   44  110 1    
    87   45   46 1    
    88   45   47 1    
    89   45  111 1    
    90   46  112 1    
    91   46  113 1    
    92   46  114 1    
    93   47   48 2    
    94   47   49 am   BACKBONE|DICT|INTERRES
    95   49   50 1    
    96   49  115 1    
    97   50   51 1    
    98   50   52 1    
    99   50  116 1    
   100   51  117 1    
   101   51  118 1    
   102   51  119 1    
   103   52   53 2    
   104   52   54 am   BACKBONE|DICT|INTERRES
   105   54   55 1    
   106   54  120 1    
   107   55   56 1    
   108   55   57 1    
   109   55  121 1    
   110   56  122 1    
   111   56  123 1    
   112   56  124 1    
   113   57   58 2    
   114   57   59 am   BACKBONE|DICT|INTERRES
   115   59   60 1    
   116   59  125 1    
   117   60   61 1    
   118   60   62 1    
   119   60  126 1    
   120   61  127 1    
   121   61  128 1    
   122   61  129 1    
   123   62   63 2    
   124   62   64 am   BACKBONE|DICT|INTERRES
   125   64   65 1    
   126   64  130 1    
   127   65   66 1    
   128   65   69 1    
   129   65  131 1    
   130   66   67 am   BACKBONE|DICT|INTERRES
   131   66   68 2    
   132   67  132 1    
   133   67  133 1    
   134   69   70 1    
   135   69  134 1    
   136   69  135 1    
   137   70   71 1    
   138   71  136 1    
   139   71  137 1    
@<TRIPOS>SUBSTRUCTURE
     1 UNK         1 GROUP             0       ****    0 ROOT    
