@<TRIPOS>MOLECULE
3R137
137   139    1
SMALL
USER_CHARGES


@<TRIPOS>ATOM
      1 CA         29.6636   -3.8350   -5.5726 C.3       0 UNK        -0.2020 
      2 C          29.5612   -4.3139   -4.1325 C.2       0 UNK         0.4855 
      3 O          29.9348   -5.4495   -3.8356 O.2       0 UNK        -0.5197 
      4 N          29.0636   -3.4534   -3.2374 N.am      1 UNK        -0.4892 
      5 CA         28.7778   -3.7681   -1.8314 C.3       1 UNK         0.0835 
      6 C6         28.7286   -2.4811   -0.9686 C.3       12 UNK        -0.0855 
      7 S7         30.3362   -1.6183   -0.9592 S.3       12 UNK        -0.2931 
      8 C8         29.8337    0.1093   -0.6803 C.3       12 UNK         0.0378 
      9 C9         29.1030    0.7064   -1.8755 C.ar      12 UNK        -0.0802 
     10 C10        29.7804    0.9164   -3.0807 C.ar      12 UNK        -0.0944 
     11 C11        29.1238    1.4951   -4.1697 C.ar      12 UNK        -0.0787 
     12 C12        27.7861    1.8791   -4.0459 C.ar      12 UNK        -0.0862 
     13 C13        27.0951    1.6657   -2.8500 C.ar      12 UNK        -0.0733 
     14 C14        27.7580    1.0766   -1.7687 C.ar      12 UNK        -0.0832 
     15 C15        25.6406    2.0916   -2.7146 C.3       12 UNK         0.0240 
     16 S16        24.4954    0.7625   -3.2002 S.3       12 UNK        -0.2522 
     17 C17        24.5675    0.8420   -5.0244 C.3       12 UNK        -0.0967 
     18 CA         25.3056   -0.3712   -5.6421 C.3       5 UNK         0.0660 
     19 N          24.6469   -1.6271   -5.2828 N.am      5 UNK        -0.4015 
     20 C          25.1248   -2.8568   -5.5013 C.2       4 UNK         0.4946 
     21 O          26.2071   -3.0909   -6.0428 O.2       4 UNK        -0.5353 
     22 CA         24.2523   -4.0046   -4.9665 C.3       4 UNK         0.0277 
     23 CB         24.7779   -5.3950   -5.3712 C.3       4 UNK        -0.1981 
     24 N          24.1875   -3.9154   -3.5065 N.am      4 UNK        -0.4209 
     25 C          23.2723   -3.2199   -2.8152 C.2       3 UNK         0.4942 
     26 O          22.3377   -2.6309   -3.3613 O.2       3 UNK        -0.5208 
     27 CA         23.4367   -3.0920   -1.2833 C.3       3 UNK         0.0250 
     28 CB         22.1034   -3.3088   -0.5362 C.3       3 UNK        -0.1990 
     29 N          24.5158   -3.9048   -0.7031 N.am      3 UNK        -0.4232 
     30 C          24.5974   -5.2428   -0.6282 C.2       2 UNK         0.4993 
     31 O          23.6922   -6.0060   -0.9686 O.2       2 UNK        -0.5286 
     32 CA         25.9436   -5.8192   -0.1270 C.3       2 UNK         0.0209 
     33 CB         26.1568   -7.2798   -0.5800 C.3       2 UNK        -0.1931 
     34 N          27.1270   -5.0102   -0.4809 N.am      2 UNK        -0.4546 
     35 C          27.4703   -4.5837   -1.7082 C.2       1 UNK         0.5154 
     36 O          26.7718   -4.7842   -2.7031 O.2       1 UNK        -0.5181 
     37 C          25.4160   -0.2123   -7.1720 C.2       5 UNK         0.5014 
     38 O          24.5016   -0.6087   -7.9002 O.2       5 UNK        -0.5248 
     39 N          26.5119    0.4052   -7.6201 N.am      6 UNK        -0.4434 
     40 CA         26.7972    0.7431   -9.0115 C.3       6 UNK         0.0363 
     41 CB         27.6806   -0.3545   -9.6390 C.3       6 UNK        -0.1936 
     42 C          27.4599    2.1287   -9.0592 C.2       6 UNK         0.5081 
     43 O          27.5819    2.7946   -8.0265 O.2       6 UNK        -0.5248 
     44 N          27.8578    2.5528  -10.2638 N.am      7 UNK        -0.4718 
     45 CA         28.4770    3.8477  -10.5525 C.3       7 UNK         0.0273 
     46 CB         28.4136    4.0925  -12.0719 C.3       7 UNK        -0.1935 
     47 C          29.9148    3.9653  -10.0071 C.2       7 UNK         0.5018 
     48 O          30.8703    3.8813  -10.7821 O.2       7 UNK        -0.5186 
     49 N          30.0337    4.1623   -8.6861 N.am      8 UNK        -0.4240 
     50 CA         31.2496    4.4744   -7.9222 C.3       8 UNK         0.0235 
     51 CB         31.6644    5.9426   -8.1669 C.3       8 UNK        -0.2000 
     52 C          32.3875    3.4686   -8.1734 C.2       8 UNK         0.4941 
     53 O          32.3665    2.3805   -7.6008 O.2       8 UNK        -0.5273 
     54 N          33.3330    3.8243   -9.0554 N.am      9 UNK        -0.4262 
     55 CA         34.4523    2.9877   -9.5023 C.3       9 UNK         0.0264 
     56 CB         35.3434    3.8086  -10.4488 C.3       9 UNK        -0.1955 
     57 C          34.0362    1.6603  -10.1685 C.2       9 UNK         0.5031 
     58 O          34.8597    0.7470  -10.2392 O.2       9 UNK        -0.5390 
     59 N          32.7783    1.5597  -10.6241 N.am      10 UNK        -0.4204 
     60 CA         32.1650    0.3229  -11.1122 C.3       10 UNK         0.0237 
     61 CB         30.8154    0.6532  -11.7686 C.3       10 UNK        -0.1985 
     62 C          31.9785   -0.7557  -10.0252 C.2       10 UNK         0.4970 
     63 O          31.8761   -1.9308  -10.3798 O.2       10 UNK        -0.4914 
     64 N          31.9219   -0.3632   -8.7434 N.am      11 UNK        -0.4285 
     65 CA         31.8134   -1.2839   -7.6029 C.3       11 UNK         0.1007 
     66 C          33.1487   -2.0383   -7.3695 C.2       11 UNK         0.5703 
     67 N          33.1496   -3.3611   -7.4673 N.am      11 UNK        -0.7361 
     68 O          34.1762   -1.4336   -7.0701 O.2       11 UNK        -0.4986 
     69 C69        31.3487   -0.5609   -6.3113 C.3       12 UNK        -0.0947 
     70 S70        29.7189    0.2249   -6.5298 S.3       12 UNK        -0.2240 
     71 C71        29.8525    1.7049   -5.4844 C.3       12 UNK         0.0194 
     72 H72        29.2402   -2.8386   -5.7017 H         1 UNK         0.0906 
     73 H73        30.7062   -3.8114   -5.8848 H         1 UNK         0.0906 
     74 H74        29.1215   -4.5134   -6.2310 H         1 UNK         0.0906 
     75 H75        28.7645   -2.5393   -3.5440 H         1 UNK         0.3140 
     76 H76        29.5805   -4.4052   -1.4528 H         1 UNK         0.1085 
     77 H77        28.4787   -2.7041    0.0699 H         1 UNK         0.0836 
     78 H78        27.9487   -1.8110   -1.3345 H         1 UNK         0.0836 
     79 H79        30.7254    0.7048   -0.4792 H         1 UNK         0.0731 
     80 H80        29.2223    0.1631    0.2219 H         1 UNK         0.0731 
     81 H81        30.8178    0.6238   -3.1718 H         1 UNK         0.1312 
     82 H82        27.2846    2.3422   -4.8844 H         1 UNK         0.1406 
     83 H83        27.2271    0.9176   -0.8397 H         1 UNK         0.1631 
     84 H84        25.4453    2.9883   -3.3049 H         1 UNK         0.0717 
     85 H85        25.4332    2.3657   -1.6791 H         1 UNK         0.0717 
     86 H86        23.5423    0.8918   -5.3975 H         1 UNK         0.0934 
     87 H87        25.0346    1.7793   -5.3304 H         1 UNK         0.0934 
     88 H88        26.3173   -0.4109   -5.2315 H         1 UNK         0.0739 
     89 H89        23.7557   -1.5421   -4.8117 H         1 UNK         0.3093 
     90 H90        23.2532   -3.8925   -5.3931 H         1 UNK         0.0818 
     91 H91        25.7933   -5.5677   -5.0132 H         1 UNK         0.0819 
     92 H92        24.1445   -6.1886   -4.9748 H         1 UNK         0.0819 
     93 H93        24.7946   -5.5022   -6.4563 H         1 UNK         0.0819 
     94 H94        24.9865   -4.3120   -3.0159 H         1 UNK         0.3041 
     95 H95        23.7339   -2.0556   -1.1147 H         1 UNK         0.0784 
     96 H96        21.3537   -2.5840   -0.8563 H         1 UNK         0.0793 
     97 H97        21.6899   -4.3007   -0.7202 H         1 UNK         0.0793 
     98 H98        22.2267   -3.1897    0.5402 H         1 UNK         0.0793 
     99 H99        25.3247   -3.3830   -0.3965 H         1 UNK         0.3024 
    100 H100       25.8779   -5.8179    0.9625 H         1 UNK         0.1171 
    101 H101       27.0919   -7.6836   -0.1920 H         1 UNK         0.0786 
    102 H102       25.3550   -7.9262   -0.2207 H         1 UNK         0.0786 
    103 H103       26.1811   -7.3636   -1.6673 H         1 UNK         0.0786 
    104 H104       27.7439   -4.7912    0.2900 H         1 UNK         0.2977 
    105 H105       27.1946    0.7628   -6.9634 H         1 UNK         0.3127 
    106 H106       25.8619    0.8144   -9.5708 H         1 UNK         0.0770 
    107 H107       28.6810   -0.3702   -9.2064 H         1 UNK         0.0814 
    108 H108       27.7924   -0.2107  -10.7137 H         1 UNK         0.0814 
    109 H109       27.2432   -1.3428   -9.4959 H         1 UNK         0.0814 
    110 H110       27.7225    1.9416  -11.0559 H         1 UNK         0.2983 
    111 H111       27.8830    4.6270  -10.0693 H         1 UNK         0.0947 
    112 H112       28.8584    5.0544  -12.3309 H         1 UNK         0.0806 
    113 H113       27.3840    4.1078  -12.4299 H         1 UNK         0.0806 
    114 H114       28.9522    3.3251  -12.6296 H         1 UNK         0.0806 
    115 H115       29.1824    4.0616   -8.1418 H         1 UNK         0.3000 
    116 H116       30.9890    4.3792   -6.8671 H         1 UNK         0.0850 
    117 H117       32.5753    6.1923   -7.6208 H         1 UNK         0.0810 
    118 H118       30.8895    6.6269   -7.8210 H         1 UNK         0.0810 
    119 H119       31.8386    6.1564   -9.2221 H         1 UNK         0.0810 
    120 H120       33.2330    4.7202   -9.5104 H         1 UNK         0.3040 
    121 H121       35.0369    2.7291   -8.6171 H         1 UNK         0.0766 
    122 H122       36.2060    3.2265  -10.7767 H         1 UNK         0.0812 
    123 H123       35.7275    4.7032   -9.9584 H         1 UNK         0.0812 
    124 H124       34.8016    4.1197  -11.3430 H         1 UNK         0.0812 
    125 H125       32.1786    2.3791  -10.5710 H         1 UNK         0.3205 
    126 H126       32.8233   -0.0951  -11.8766 H         1 UNK         0.0754 
    127 H127       30.1114    1.0594  -11.0434 H         1 UNK         0.0769 
    128 H128       30.3606   -0.2392  -12.2009 H         1 UNK         0.0769 
    129 H129       30.9294    1.3820  -12.5714 H         1 UNK         0.0769 
    130 H130       32.0430    0.6160   -8.5043 H         1 UNK         0.2981 
    131 H131       31.0451   -2.0193   -7.8515 H         1 UNK         0.0541 
    132 H132       32.3227   -3.8640   -7.7478 H         1 UNK         0.3459 
    133 H133       34.0095   -3.8618   -7.3070 H         1 UNK         0.3459 
    134 H134       32.0848    0.1877   -6.0151 H         1 UNK         0.0612 
    135 H135       31.2736   -1.2619   -5.4786 H         1 UNK         0.0612 
    136 H136       29.4186    2.5491   -6.0207 H         1 UNK         0.0624 
    137 H137       30.8950    1.9687   -5.3045 H         1 UNK         0.0624 
@<TRIPOS>BOND
     1    1    2 1    
     2    1   72 1    
     3    1   73 1    
     4    1   74 1    
     5    2    3 2    
     6    2    4 am   BACKBONE|DICT|INTERRES
     7    4    5 1    
     8    4   75 1    
     9    5    6 1    
    10    5   35 1    
    11    5   76 1    
    12    6    7 1    
    13    6   77 1    
    14    6   78 1    
    15    7    8 1    
    16    8    9 1    
    17    8   79 1    
    18    8   80 1    
    19    9   10 ar   
    20    9   14 ar   
    21   10   11 ar   
    22   10   81 1    
    23   11   12 ar   
    24   11   71 1    
    25   12   13 ar   
    26   12   82 1    
    27   13   14 ar   
    28   13   15 1    
    29   14   83 1    
    30   15   16 1    
    31   15   84 1    
    32   15   85 1    
    33   16   17 1    
    34   17   18 1    
    35   17   86 1    
    36   17   87 1    
    37   18   19 1    
    38   18   37 1    
    39   18   88 1    
    40   19   20 am   BACKBONE|DICT|INTERRES
    41   19   89 1    
    42   20   21 2    
    43   20   22 1    
    44   22   23 1    
    45   22   24 1    
    46   22   90 1    
    47   23   91 1    
    48   23   92 1    
    49   23   93 1    
    50   24   25 am   BACKBONE|DICT|INTERRES
    51   24   94 1    
    52   25   26 2    
    53   25   27 1    
    54   27   28 1    
    55   27   29 1    
    56   27   95 1    
    57   28   96 1    
    58   28   97 1    
    59   28   98 1    
    60   29   30 am   BACKBONE|DICT|INTERRES
    61   29   99 1    
    62   30   31 2    
    63   30   32 1    
    64   32   33 1    
    65   32   34 1    
    66   32  100 1    
    67   33  101 1    
    68   33  102 1    
    69   33  103 1    
    70   34   35 am   BACKBONE|DICT|INTERRES
    71   34  104 1    
    72   35   36 2    
    73   37   38 2    
    74   37   39 am   BACKBONE|DICT|INTERRES
    75   39   40 1    
    76   39  105 1    
    77   40   41 1    
    78   40   42 1    
    79   40  106 1    
    80   41  107 1    
    81   41  108 1    
    82   41  109 1    
    83   42   43 2    
    84   42   44 am   BACKBONE|DICT|INTERRES
    85   44   45 1    
    86   44  110 1    
    87   45   46 1    
    88   45   47 1    
    89   45  111 1    
    90   46  112 1    
    91   46  113 1    
    92   46  114 1    
    93   47   48 2    
    94   47   49 am   BACKBONE|DICT|INTERRES
    95   49   50 1    
    96   49  115 1    
    97   50   51 1    
    98   50   52 1    
    99   50  116 1    
   100   51  117 1    
   101   51  118 1    
   102   51  119 1    
   103   52   53 2    
   104   52   54 am   BACKBONE|DICT|INTERRES
   105   54   55 1    
   106   54  120 1    
   107   55   56 1    
   108   55   57 1    
   109   55  121 1    
   110   56  122 1    
   111   56  123 1    
   112   56  124 1    
   113   57   58 2    
   114   57   59 am   BACKBONE|DICT|INTERRES
   115   59   60 1    
   116   59  125 1    
   117   60   61 1    
   118   60   62 1    
   119   60  126 1    
   120   61  127 1    
   121   61  128 1    
   122   61  129 1    
   123   62   63 2    
   124   62   64 am   BACKBONE|DICT|INTERRES
   125   64   65 1    
   126   64  130 1    
   127   65   66 1    
   128   65   69 1    
   129   65  131 1    
   130   66   67 am   BACKBONE|DICT|INTERRES
   131   66   68 2    
   132   67  132 1    
   133   67  133 1    
   134   69   70 1    
   135   69  134 1    
   136   69  135 1    
   137   70   71 1    
   138   71  136 1    
   139   71  137 1    
@<TRIPOS>SUBSTRUCTURE
     1 UNK         1 GROUP             0       ****    0 ROOT    
