@<TRIPOS>MOLECULE
3R137
137   139    1
SMALL
USER_CHARGES


@<TRIPOS>ATOM
      1 CA         24.6566   -5.7569   -5.0804 C.3       0 UNK        -0.2020 
      2 C          25.2515   -5.1232   -3.8323 C.2       0 UNK         0.4855 
      3 O          24.5097   -4.6220   -2.9870 O.2       0 UNK        -0.5197 
      4 N          26.5866   -5.1273   -3.7192 N.am      1 UNK        -0.4892 
      5 CA         27.3607   -4.5544   -2.6104 C.3       1 UNK         0.0835 
      6 C6         28.8748   -4.8467   -2.7816 C.3       12 UNK        -0.0855 
      7 S7         29.7456   -5.1642   -1.2090 S.3       12 UNK        -0.2931 
      8 C8         29.9968   -3.4964   -0.5002 C.3       12 UNK         0.0378 
      9 C9         30.7131   -2.4802   -1.3918 C.ar      12 UNK        -0.0802 
     10 C10        31.6045   -2.8583   -2.4042 C.ar      12 UNK        -0.0944 
     11 C11        32.2222   -1.8955   -3.2082 C.ar      12 UNK        -0.0787 
     12 C12        31.9820   -0.5398   -2.9686 C.ar      12 UNK        -0.0862 
     13 C13        31.1068   -0.1455   -1.9526 C.ar      12 UNK        -0.0733 
     14 C14        30.4781   -1.1196   -1.1711 C.ar      12 UNK        -0.0832 
     15 C15        30.8256    1.3306   -1.7009 C.3       12 UNK         0.0240 
     16 S16        30.0327    2.1565   -3.1200 S.3       12 UNK        -0.2522 
     17 C17        28.5207    1.1651   -3.3688 C.3       12 UNK        -0.0967 
     18 CA         28.1117    1.1263   -4.8632 C.3       5 UNK         0.0660 
     19 N          27.4938   -0.1473   -5.2367 N.am      5 UNK        -0.4015 
     20 C          27.1728   -0.5108   -6.4863 C.2       4 UNK         0.4946 
     21 O          27.4513    0.1506   -7.4858 O.2       4 UNK        -0.5353 
     22 CA         26.3476   -1.7983   -6.6414 C.3       4 UNK         0.0277 
     23 CB         27.2500   -3.0426   -6.6800 C.3       4 UNK        -0.1981 
     24 N          25.3516   -1.9257   -5.5738 N.am      4 UNK        -0.4209 
     25 C          24.2528   -1.1611   -5.4796 C.2       3 UNK         0.4942 
     26 O          23.9257   -0.3339   -6.3285 O.2       3 UNK        -0.5208 
     27 CA         23.3976   -1.3050   -4.2093 C.3       3 UNK         0.0250 
     28 CB         22.3067   -2.3699   -4.4004 C.3       3 UNK        -0.1990 
     29 N          24.2000   -1.6126   -3.0222 N.am      3 UNK        -0.4232 
     30 C          25.0197   -0.7297   -2.4301 C.2       2 UNK         0.4993 
     31 O          25.1480    0.4361   -2.8043 O.2       2 UNK        -0.5286 
     32 CA         25.8940   -1.2437   -1.2706 C.3       2 UNK         0.0209 
     33 CB         25.1502   -1.1153    0.0674 C.3       2 UNK        -0.1931 
     34 N          26.3483   -2.6272   -1.4514 N.am      2 UNK        -0.4546 
     35 C          27.0888   -3.0411   -2.4885 C.2       1 UNK         0.5154 
     36 O          27.4924   -2.2820   -3.3708 O.2       1 UNK        -0.5181 
     37 C          27.2179    2.3253   -5.2425 C.2       5 UNK         0.5014 
     38 O          27.7029    3.2647   -5.8734 O.2       5 UNK        -0.5248 
     39 N          25.9199    2.2497   -4.9066 N.am      6 UNK        -0.4434 
     40 CA         24.9005    3.2388   -5.2770 C.3       6 UNK         0.0363 
     41 CB         23.5711    2.8935   -4.5883 C.3       6 UNK        -0.1936 
     42 C          24.7029    3.3761   -6.7987 C.2       6 UNK         0.5081 
     43 O          24.4877    4.4875   -7.2821 O.2       6 UNK        -0.5248 
     44 N          24.8179    2.2586   -7.5295 N.am      7 UNK        -0.4718 
     45 CA         24.8126    2.2052   -8.9956 C.3       7 UNK         0.0273 
     46 CB         24.4694    0.7737   -9.4409 C.3       7 UNK        -0.1935 
     47 C          26.1344    2.6706   -9.6426 C.2       7 UNK         0.5018 
     48 O          26.1872    2.7701  -10.8694 O.2       7 UNK        -0.5186 
     49 N          27.1645    2.9408   -8.8262 N.am      8 UNK        -0.4240 
     50 CA         28.5181    3.3665   -9.1918 C.3       8 UNK         0.0235 
     51 CB         28.5013    4.7575   -9.8625 C.3       8 UNK        -0.2000 
     52 C          29.2890    2.3063  -10.0005 C.2       8 UNK         0.4941 
     53 O          29.9725    2.6505  -10.9680 O.2       8 UNK        -0.5273 
     54 N          29.1824    1.0346   -9.5870 N.am      9 UNK        -0.4262 
     55 CA         29.9680   -0.0770  -10.1286 C.3       9 UNK         0.0264 
     56 CB         29.4354   -1.4031   -9.5636 C.3       9 UNK        -0.1955 
     57 C          31.4608    0.0789   -9.7917 C.2       9 UNK         0.5031 
     58 O          31.8006    0.4623   -8.6694 O.2       9 UNK        -0.5390 
     59 N          32.3308   -0.2577  -10.7507 N.am      10 UNK        -0.4204 
     60 CA         33.7891   -0.1399  -10.6463 C.3       10 UNK         0.0237 
     61 CB         34.3746    0.0308  -12.0617 C.3       10 UNK        -0.1985 
     62 C          34.4337   -1.3102   -9.8734 C.2       10 UNK         0.4970 
     63 O          35.4133   -1.8897  -10.3467 O.2       10 UNK        -0.4914 
     64 N          33.8766   -1.6448   -8.7035 N.am      11 UNK        -0.4285 
     65 CA         34.3877   -2.6879   -7.8000 C.3       11 UNK         0.1007 
     66 C          35.5951   -2.2540   -6.9179 C.2       11 UNK         0.5703 
     67 N          35.9792   -0.9829   -6.8902 N.am      11 UNK        -0.7361 
     68 O          36.2034   -3.0912   -6.2555 O.2       11 UNK        -0.4986 
     69 C69        33.2529   -3.3518   -6.9756 C.3       12 UNK        -0.0947 
     70 S70        32.2716   -2.2052   -5.9476 S.3       12 UNK        -0.2240 
     71 C71        33.1332   -2.3238   -4.3469 C.3       12 UNK         0.0194 
     72 H72        24.2416   -4.9889   -5.7323 H         1 UNK         0.0906 
     73 H73        25.4000   -6.3180   -5.6463 H         1 UNK         0.0906 
     74 H74        23.8545   -6.4420   -4.8069 H         1 UNK         0.0906 
     75 H75        27.1358   -5.5440   -4.4574 H         1 UNK         0.3140 
     76 H76        27.0084   -5.0475   -1.7017 H         1 UNK         0.1085 
     77 H77        29.0099   -5.7593   -3.3643 H         1 UNK         0.0836 
     78 H78        29.3839   -4.0760   -3.3626 H         1 UNK         0.0836 
     79 H79        30.5729   -3.6039    0.4196 H         1 UNK         0.0731 
     80 H80        29.0235   -3.1056   -0.2008 H         1 UNK         0.0731 
     81 H81        31.8053   -3.9046   -2.5862 H         1 UNK         0.1312 
     82 H82        32.4566    0.2083   -3.5891 H         1 UNK         0.1406 
     83 H83        29.7972   -0.8165   -0.3871 H         1 UNK         0.1631 
     84 H84        31.7655    1.8379   -1.4794 H         1 UNK         0.0717 
     85 H85        30.1926    1.4632   -0.8221 H         1 UNK         0.0717 
     86 H86        28.7107    0.1508   -3.0192 H         1 UNK         0.0934 
     87 H87        27.7234    1.5475   -2.7282 H         1 UNK         0.0934 
     88 H88        29.0163    1.1940   -5.4726 H         1 UNK         0.0739 
     89 H89        27.3146   -0.8081   -4.4843 H         1 UNK         0.3093 
     90 H90        25.8171   -1.7415   -7.5940 H         1 UNK         0.0818 
     91 H91        27.8623   -3.1378   -5.7836 H         1 UNK         0.0819 
     92 H92        26.6637   -3.9548   -6.7876 H         1 UNK         0.0819 
     93 H93        27.9314   -2.9993   -7.5296 H         1 UNK         0.0819 
     94 H94        25.5879   -2.5293   -4.7999 H         1 UNK         0.3041 
     95 H95        22.9001   -0.3480   -4.0389 H         1 UNK         0.0784 
     96 H96        21.6678   -2.1224   -5.2494 H         1 UNK         0.0793 
     97 H97        22.7269   -3.3573   -4.5884 H         1 UNK         0.0793 
     98 H98        21.6644   -2.4412   -3.5225 H         1 UNK         0.0793 
     99 H99        24.1868   -2.5733   -2.6938 H         1 UNK         0.3024 
    100 H100       26.7813   -0.6079   -1.2312 H         1 UNK         0.1171 
    101 H101       24.8194   -0.0888    0.2322 H         1 UNK         0.0786 
    102 H102       25.7922   -1.3851    0.9062 H         1 UNK         0.0786 
    103 H103       24.2655   -1.7525    0.1016 H         1 UNK         0.0786 
    104 H104       26.0061   -3.3094   -0.7893 H         1 UNK         0.2977 
    105 H105       25.6110    1.4753   -4.3222 H         1 UNK         0.3127 
    106 H106       25.2361    4.2077   -4.9015 H         1 UNK         0.0770 
    107 H107       23.1784    1.9355   -4.9287 H         1 UNK         0.0814 
    108 H108       22.8144    3.6496   -4.8015 H         1 UNK         0.0814 
    109 H109       23.6848    2.8439   -3.5052 H         1 UNK         0.0814 
    110 H110       24.9180    1.3717   -7.0468 H         1 UNK         0.2983 
    111 H111       24.0273    2.8711   -9.3596 H         1 UNK         0.0947 
    112 H112       24.3832    0.7101  -10.5264 H         1 UNK         0.0806 
    113 H113       23.5190    0.4432   -9.0213 H         1 UNK         0.0806 
    114 H114       25.2372    0.0637   -9.1339 H         1 UNK         0.0806 
    115 H115       27.0193    2.8059   -7.8320 H         1 UNK         0.3000 
    116 H116       29.0614    3.4688   -8.2513 H         1 UNK         0.0850 
    117 H117       29.5151    5.1334  -10.0056 H         1 UNK         0.0810 
    118 H118       27.9702    5.4859   -9.2498 H         1 UNK         0.0810 
    119 H119       28.0247    4.7307  -10.8428 H         1 UNK         0.0810 
    120 H120       28.5871    0.8213   -8.7876 H         1 UNK         0.3040 
    121 H121       29.8406   -0.0813  -11.2131 H         1 UNK         0.0766 
    122 H122       28.3718   -1.5257   -9.7694 H         1 UNK         0.0812 
    123 H123       29.5776   -1.4594   -8.4833 H         1 UNK         0.0812 
    124 H124       29.9543   -2.2549  -10.0048 H         1 UNK         0.0812 
    125 H125       31.9729   -0.6095  -11.6276 H         1 UNK         0.3205 
    126 H126       34.0236    0.7684  -10.0868 H         1 UNK         0.0754 
    127 H127       35.4526    0.1941  -12.0243 H         1 UNK         0.0769 
    128 H128       33.9393    0.8916  -12.5700 H         1 UNK         0.0769 
    129 H129       34.1986   -0.8498  -12.6810 H         1 UNK         0.0769 
    130 H130       33.0920   -1.0962   -8.3664 H         1 UNK         0.2981 
    131 H131       34.7897   -3.4824   -8.4317 H         1 UNK         0.0541 
    132 H132       36.7673   -0.7180   -6.3208 H         1 UNK         0.3459 
    133 H133       35.4840   -0.2870   -7.4232 H         1 UNK         0.3459 
    134 H134       32.5559   -3.8335   -7.6629 H         1 UNK         0.0612 
    135 H135       33.6443   -4.1613   -6.3572 H         1 UNK         0.0612 
    136 H136       34.0241   -1.6948   -4.3670 H         1 UNK         0.0624 
    137 H137       33.4785   -3.3458   -4.1844 H         1 UNK         0.0624 
@<TRIPOS>BOND
     1    1    2 1    
     2    1   72 1    
     3    1   73 1    
     4    1   74 1    
     5    2    3 2    
     6    2    4 am   BACKBONE|DICT|INTERRES
     7    4    5 1    
     8    4   75 1    
     9    5    6 1    
    10    5   35 1    
    11    5   76 1    
    12    6    7 1    
    13    6   77 1    
    14    6   78 1    
    15    7    8 1    
    16    8    9 1    
    17    8   79 1    
    18    8   80 1    
    19    9   10 ar   
    20    9   14 ar   
    21   10   11 ar   
    22   10   81 1    
    23   11   12 ar   
    24   11   71 1    
    25   12   13 ar   
    26   12   82 1    
    27   13   14 ar   
    28   13   15 1    
    29   14   83 1    
    30   15   16 1    
    31   15   84 1    
    32   15   85 1    
    33   16   17 1    
    34   17   18 1    
    35   17   86 1    
    36   17   87 1    
    37   18   19 1    
    38   18   37 1    
    39   18   88 1    
    40   19   20 am   BACKBONE|DICT|INTERRES
    41   19   89 1    
    42   20   21 2    
    43   20   22 1    
    44   22   23 1    
    45   22   24 1    
    46   22   90 1    
    47   23   91 1    
    48   23   92 1    
    49   23   93 1    
    50   24   25 am   BACKBONE|DICT|INTERRES
    51   24   94 1    
    52   25   26 2    
    53   25   27 1    
    54   27   28 1    
    55   27   29 1    
    56   27   95 1    
    57   28   96 1    
    58   28   97 1    
    59   28   98 1    
    60   29   30 am   BACKBONE|DICT|INTERRES
    61   29   99 1    
    62   30   31 2    
    63   30   32 1    
    64   32   33 1    
    65   32   34 1    
    66   32  100 1    
    67   33  101 1    
    68   33  102 1    
    69   33  103 1    
    70   34   35 am   BACKBONE|DICT|INTERRES
    71   34  104 1    
    72   35   36 2    
    73   37   38 2    
    74   37   39 am   BACKBONE|DICT|INTERRES
    75   39   40 1    
    76   39  105 1    
    77   40   41 1    
    78   40   42 1    
    79   40  106 1    
    80   41  107 1    
    81   41  108 1    
    82   41  109 1    
    83   42   43 2    
    84   42   44 am   BACKBONE|DICT|INTERRES
    85   44   45 1    
    86   44  110 1    
    87   45   46 1    
    88   45   47 1    
    89   45  111 1    
    90   46  112 1    
    91   46  113 1    
    92   46  114 1    
    93   47   48 2    
    94   47   49 am   BACKBONE|DICT|INTERRES
    95   49   50 1    
    96   49  115 1    
    97   50   51 1    
    98   50   52 1    
    99   50  116 1    
   100   51  117 1    
   101   51  118 1    
   102   51  119 1    
   103   52   53 2    
   104   52   54 am   BACKBONE|DICT|INTERRES
   105   54   55 1    
   106   54  120 1    
   107   55   56 1    
   108   55   57 1    
   109   55  121 1    
   110   56  122 1    
   111   56  123 1    
   112   56  124 1    
   113   57   58 2    
   114   57   59 am   BACKBONE|DICT|INTERRES
   115   59   60 1    
   116   59  125 1    
   117   60   61 1    
   118   60   62 1    
   119   60  126 1    
   120   61  127 1    
   121   61  128 1    
   122   61  129 1    
   123   62   63 2    
   124   62   64 am   BACKBONE|DICT|INTERRES
   125   64   65 1    
   126   64  130 1    
   127   65   66 1    
   128   65   69 1    
   129   65  131 1    
   130   66   67 am   BACKBONE|DICT|INTERRES
   131   66   68 2    
   132   67  132 1    
   133   67  133 1    
   134   69   70 1    
   135   69  134 1    
   136   69  135 1    
   137   70   71 1    
   138   71  136 1    
   139   71  137 1    
@<TRIPOS>SUBSTRUCTURE
     1 UNK         1 GROUP             0       ****    0 ROOT    
