@<TRIPOS>MOLECULE
3R137
137   139    1
SMALL
USER_CHARGES


@<TRIPOS>ATOM
      1 CA         25.3217   -6.0709   -5.2663 C.3       0 UNK        -0.2020 
      2 C          25.6264   -5.3604   -3.9566 C.2       0 UNK         0.4855 
      3 O          24.7025   -4.9587   -3.2489 O.2       0 UNK        -0.5197 
      4 N          26.9173   -5.1918   -3.6402 N.am      1 UNK        -0.4892 
      5 CA         27.4450   -4.5248   -2.4433 C.3       1 UNK         0.0835 
      6 C6         28.9905   -4.6090   -2.4270 C.3       12 UNK        -0.0855 
      7 S7         29.7124   -4.1393   -0.8209 S.3       12 UNK        -0.2931 
      8 C8         31.3272   -3.4775   -1.3450 C.3       12 UNK         0.0378 
      9 C9         31.2161   -2.1407   -2.0694 C.ar      12 UNK        -0.0802 
     10 C10        31.6224   -2.0194   -3.4027 C.ar      12 UNK        -0.0944 
     11 C11        31.6065   -0.7741   -4.0424 C.ar      12 UNK        -0.0787 
     12 C12        31.1506    0.3468   -3.3424 C.ar      12 UNK        -0.0862 
     13 C13        30.6991    0.2333   -2.0233 C.ar      12 UNK        -0.0733 
     14 C14        30.7488   -1.0121   -1.3899 C.ar      12 UNK        -0.0832 
     15 C15        30.1664    1.4458   -1.2633 C.3       12 UNK         0.0240 
     16 S16        29.0297    2.4983   -2.2332 S.3       12 UNK        -0.2522 
     17 C17        27.7979    1.2978   -2.8430 C.3       12 UNK        -0.0967 
     18 CA         27.7499    1.2663   -4.3948 C.3       5 UNK         0.0660 
     19 N          27.4217   -0.0627   -4.9122 N.am      5 UNK        -0.4015 
     20 C          27.4121   -0.4191   -6.2047 C.2       4 UNK         0.4946 
     21 O          27.7950    0.3058   -7.1230 O.2       4 UNK        -0.5353 
     22 CA         26.8144   -1.7981   -6.5327 C.3       4 UNK         0.0277 
     23 CB         27.8644   -2.9146   -6.4025 C.3       4 UNK        -0.1981 
     24 N          25.6569   -2.0978   -5.6844 N.am      4 UNK        -0.4209 
     25 C          24.4700   -1.4793   -5.7816 C.2       3 UNK         0.4942 
     26 O          24.2044   -0.6485   -6.6478 O.2       3 UNK        -0.5208 
     27 CA         23.4171   -1.8001   -4.7078 C.3       3 UNK         0.0250 
     28 CB         22.5520   -2.9987   -5.1261 C.3       3 UNK        -0.1990 
     29 N          24.0163   -2.0441   -3.3933 N.am      3 UNK        -0.4232 
     30 C          24.5708   -1.0805   -2.6413 C.2       2 UNK         0.4993 
     31 O          24.5851    0.1082   -2.9614 O.2       2 UNK        -0.5286 
     32 CA         25.2852   -1.5162   -1.3487 C.3       2 UNK         0.0209 
     33 CB         24.2955   -1.5625   -0.1743 C.3       2 UNK        -0.1931 
     34 N          25.9692   -2.8087   -1.4677 N.am      2 UNK        -0.4546 
     35 C          26.9409   -3.0690   -2.3534 C.2       1 UNK         0.5154 
     36 O          27.3839   -2.2258   -3.1331 O.2       1 UNK        -0.5181 
     37 C          26.7965    2.3413   -4.9555 C.2       5 UNK         0.5014 
     38 O          27.2648    3.3361   -5.5098 O.2       5 UNK        -0.5248 
     39 N          25.4803    2.1000   -4.8438 N.am      6 UNK        -0.4434 
     40 CA         24.4190    2.9696   -5.3636 C.3       6 UNK         0.0363 
     41 CB         23.0498    2.4372   -4.9130 C.3       6 UNK        -0.1936 
     42 C          24.4562    3.1400   -6.8931 C.2       6 UNK         0.5081 
     43 O          24.2193    4.2440   -7.3837 O.2       6 UNK        -0.5248 
     44 N          24.7802    2.0597   -7.6166 N.am      7 UNK        -0.4718 
     45 CA         24.9833    2.0545   -9.0689 C.3       7 UNK         0.0273 
     46 CB         24.9201    0.6040   -9.5756 C.3       7 UNK        -0.1935 
     47 C          26.3014    2.7153   -9.5183 C.2       7 UNK         0.5018 
     48 O          26.4587    2.9593  -10.7155 O.2       7 UNK        -0.5186 
     49 N          27.2179    2.9736   -8.5723 N.am      8 UNK        -0.4240 
     50 CA         28.5759    3.4951   -8.7562 C.3       8 UNK         0.0235 
     51 CB         28.5472    4.9480   -9.2776 C.3       8 UNK        -0.2000 
     52 C          29.4507    2.5549   -9.6074 C.2       8 UNK         0.4941 
     53 O          30.1204    3.0054  -10.5403 O.2       8 UNK        -0.5273 
     54 N          29.4144    1.2567   -9.2756 N.am      9 UNK        -0.4262 
     55 CA         30.2187    0.2072   -9.9041 C.3       9 UNK         0.0264 
     56 CB         29.7215   -1.1596   -9.4084 C.3       9 UNK        -0.1955 
     57 C          31.7196    0.3615   -9.6005 C.2       9 UNK         0.5031 
     58 O          32.0877    0.9396   -8.5749 O.2       9 UNK        -0.5390 
     59 N          32.5565   -0.1955  -10.4861 N.am      10 UNK        -0.4204 
     60 CA         34.0176   -0.1921  -10.3596 C.3       10 UNK         0.0237 
     61 CB         34.6481   -0.6252  -11.6938 C.3       10 UNK        -0.1985 
     62 C          34.5401   -1.0684   -9.2062 C.2       10 UNK         0.4970 
     63 O          35.5555   -0.7076   -8.6096 O.2       10 UNK        -0.4914 
     64 N          33.8371   -2.1803   -8.9301 N.am      11 UNK        -0.4285 
     65 CA         34.1095   -3.1913   -7.8901 C.3       11 UNK         0.1007 
     66 C          35.6020   -3.6315   -7.7705 C.2       11 UNK         0.5703 
     67 N          36.1525   -3.7692   -6.5711 N.am      11 UNK        -0.7361 
     68 O          36.2494   -3.9153   -8.7769 O.2       11 UNK        -0.4986 
     69 C69        33.3593   -2.9194   -6.5489 C.3       12 UNK        -0.0947 
     70 S70        33.7386   -1.3143   -5.7614 S.3       12 UNK        -0.2240 
     71 C71        32.0737   -0.6197   -5.4862 C.3       12 UNK         0.0194 
     72 H72        24.9811   -5.3555   -6.0141 H         1 UNK         0.0906 
     73 H73        26.1967   -6.5861   -5.6621 H         1 UNK         0.0906 
     74 H74        24.5353   -6.8106   -5.1183 H         1 UNK         0.0906 
     75 H75        27.6190   -5.5408   -4.2773 H         1 UNK         0.3140 
     76 H76        27.0669   -5.0755   -1.5792 H         1 UNK         0.1085 
     77 H77        29.3108   -5.6319   -2.6318 H         1 UNK         0.0836 
     78 H78        29.4167   -3.9973   -3.2246 H         1 UNK         0.0836 
     79 H79        31.8325   -4.2186   -1.9666 H         1 UNK         0.0731 
     80 H80        31.9534   -3.3457   -0.4616 H         1 UNK         0.0731 
     81 H81        31.9793   -2.8891   -3.9361 H         1 UNK         0.1312 
     82 H82        31.1331    1.3118   -3.8296 H         1 UNK         0.1406 
     83 H83        30.4254   -1.1094   -0.3622 H         1 UNK         0.1631 
     84 H84        31.0112    2.0524   -0.9349 H         1 UNK         0.0717 
     85 H85        29.6438    1.1296   -0.3591 H         1 UNK         0.0717 
     86 H86        28.0499    0.3112   -2.4528 H         1 UNK         0.0934 
     87 H87        26.8267    1.5345   -2.4044 H         1 UNK         0.0934 
     88 H88        28.7475    1.4864   -4.7809 H         1 UNK         0.0739 
     89 H89        27.1979   -0.7764   -4.2218 H         1 UNK         0.3093 
     90 H90        26.4747   -1.7755   -7.5702 H         1 UNK         0.0818 
     91 H91        28.3139   -2.9466   -5.4106 H         1 UNK         0.0819 
     92 H92        27.4307   -3.8931   -6.6080 H         1 UNK         0.0819 
     93 H93        28.6760   -2.7714   -7.1140 H         1 UNK         0.0819 
     94 H94        25.8167   -2.7119   -4.8994 H         1 UNK         0.3041 
     95 H95        22.7607   -0.9316   -4.6220 H         1 UNK         0.0784 
     96 H96        22.0614   -2.8083   -6.0817 H         1 UNK         0.0793 
     97 H97        23.1402   -3.9084   -5.2392 H         1 UNK         0.0793 
     98 H98        21.7686   -3.1961   -4.3942 H         1 UNK         0.0793 
     99 H99        24.0871   -3.0110   -3.0896 H         1 UNK         0.3024 
    100 H100       26.0432   -0.7615   -1.1284 H         1 UNK         0.1171 
    101 H101       23.7879   -0.6041   -0.0547 H         1 UNK         0.0786 
    102 H102       24.8045   -1.7764    0.7657 H         1 UNK         0.0786 
    103 H103       23.5271   -2.3224   -0.3221 H         1 UNK         0.0786 
    104 H104       25.6208   -3.5620   -0.8918 H         1 UNK         0.2977 
    105 H105       25.1777    1.2802   -4.3209 H         1 UNK         0.3127 
    106 H106       24.5625    3.9572   -4.9203 H         1 UNK         0.0770 
    107 H107       22.8499    1.4460   -5.3204 H         1 UNK         0.0814 
    108 H108       22.2464    3.0951   -5.2469 H         1 UNK         0.0814 
    109 H109       22.9861    2.3720   -3.8267 H         1 UNK         0.0814 
    110 H110       24.8750    1.1654   -7.1434 H         1 UNK         0.2983 
    111 H111       24.1675    2.6146   -9.5308 H         1 UNK         0.0947 
    112 H112       25.0242    0.5613  -10.6606 H         1 UNK         0.0806 
    113 H113       23.9684    0.1359   -9.3237 H         1 UNK         0.0806 
    114 H114       25.7175   -0.0041   -9.1471 H         1 UNK         0.0806 
    115 H115       26.9859    2.7191   -7.6192 H         1 UNK         0.3000 
    116 H116       29.0290    3.5120   -7.7636 H         1 UNK         0.0850 
    117 H117       29.5513    5.3732   -9.2991 H         1 UNK         0.0810 
    118 H118       27.9388    5.5859   -8.6364 H         1 UNK         0.0810 
    119 H119       28.1475    5.0098  -10.2901 H         1 UNK         0.0810 
    120 H120       28.8371    0.9719   -8.4849 H         1 UNK         0.3040 
    121 H121       30.0673    0.2710  -10.9837 H         1 UNK         0.0766 
    122 H122       28.6502   -1.2795   -9.5721 H         1 UNK         0.0812 
    123 H123       29.9148   -1.2805   -8.3425 H         1 UNK         0.0812 
    124 H124       30.2232   -1.9771   -9.9271 H         1 UNK         0.0812 
    125 H125       32.1717   -0.6470  -11.3040 H         1 UNK         0.3205 
    126 H126       34.3308    0.8344  -10.1557 H         1 UNK         0.0754 
    127 H127       35.7374   -0.6065  -11.6337 H         1 UNK         0.0769 
    128 H128       34.3596    0.0434  -12.5053 H         1 UNK         0.0769 
    129 H129       34.3553   -1.6386  -11.9713 H         1 UNK         0.0769 
    130 H130       33.0388   -2.3758   -9.5138 H         1 UNK         0.2981 
    131 H131       33.6402   -4.0913   -8.2893 H         1 UNK         0.0541 
    132 H132       35.6372   -3.5215   -5.7411 H         1 UNK         0.3459 
    133 H133       37.1098   -4.0760   -6.4999 H         1 UNK         0.3459 
    134 H134       32.2877   -2.9781   -6.7401 H         1 UNK         0.0612 
    135 H135       33.5523   -3.7140   -5.8268 H         1 UNK         0.0612 
    136 H136       32.1152    0.4364   -5.7572 H         1 UNK         0.0624 
    137 H137       31.3398   -1.0654   -6.1577 H         1 UNK         0.0624 
@<TRIPOS>BOND
     1    1    2 1    
     2    1   72 1    
     3    1   73 1    
     4    1   74 1    
     5    2    3 2    
     6    2    4 am   BACKBONE|DICT|INTERRES
     7    4    5 1    
     8    4   75 1    
     9    5    6 1    
    10    5   35 1    
    11    5   76 1    
    12    6    7 1    
    13    6   77 1    
    14    6   78 1    
    15    7    8 1    
    16    8    9 1    
    17    8   79 1    
    18    8   80 1    
    19    9   10 ar   
    20    9   14 ar   
    21   10   11 ar   
    22   10   81 1    
    23   11   12 ar   
    24   11   71 1    
    25   12   13 ar   
    26   12   82 1    
    27   13   14 ar   
    28   13   15 1    
    29   14   83 1    
    30   15   16 1    
    31   15   84 1    
    32   15   85 1    
    33   16   17 1    
    34   17   18 1    
    35   17   86 1    
    36   17   87 1    
    37   18   19 1    
    38   18   37 1    
    39   18   88 1    
    40   19   20 am   BACKBONE|DICT|INTERRES
    41   19   89 1    
    42   20   21 2    
    43   20   22 1    
    44   22   23 1    
    45   22   24 1    
    46   22   90 1    
    47   23   91 1    
    48   23   92 1    
    49   23   93 1    
    50   24   25 am   BACKBONE|DICT|INTERRES
    51   24   94 1    
    52   25   26 2    
    53   25   27 1    
    54   27   28 1    
    55   27   29 1    
    56   27   95 1    
    57   28   96 1    
    58   28   97 1    
    59   28   98 1    
    60   29   30 am   BACKBONE|DICT|INTERRES
    61   29   99 1    
    62   30   31 2    
    63   30   32 1    
    64   32   33 1    
    65   32   34 1    
    66   32  100 1    
    67   33  101 1    
    68   33  102 1    
    69   33  103 1    
    70   34   35 am   BACKBONE|DICT|INTERRES
    71   34  104 1    
    72   35   36 2    
    73   37   38 2    
    74   37   39 am   BACKBONE|DICT|INTERRES
    75   39   40 1    
    76   39  105 1    
    77   40   41 1    
    78   40   42 1    
    79   40  106 1    
    80   41  107 1    
    81   41  108 1    
    82   41  109 1    
    83   42   43 2    
    84   42   44 am   BACKBONE|DICT|INTERRES
    85   44   45 1    
    86   44  110 1    
    87   45   46 1    
    88   45   47 1    
    89   45  111 1    
    90   46  112 1    
    91   46  113 1    
    92   46  114 1    
    93   47   48 2    
    94   47   49 am   BACKBONE|DICT|INTERRES
    95   49   50 1    
    96   49  115 1    
    97   50   51 1    
    98   50   52 1    
    99   50  116 1    
   100   51  117 1    
   101   51  118 1    
   102   51  119 1    
   103   52   53 2    
   104   52   54 am   BACKBONE|DICT|INTERRES
   105   54   55 1    
   106   54  120 1    
   107   55   56 1    
   108   55   57 1    
   109   55  121 1    
   110   56  122 1    
   111   56  123 1    
   112   56  124 1    
   113   57   58 2    
   114   57   59 am   BACKBONE|DICT|INTERRES
   115   59   60 1    
   116   59  125 1    
   117   60   61 1    
   118   60   62 1    
   119   60  126 1    
   120   61  127 1    
   121   61  128 1    
   122   61  129 1    
   123   62   63 2    
   124   62   64 am   BACKBONE|DICT|INTERRES
   125   64   65 1    
   126   64  130 1    
   127   65   66 1    
   128   65   69 1    
   129   65  131 1    
   130   66   67 am   BACKBONE|DICT|INTERRES
   131   66   68 2    
   132   67  132 1    
   133   67  133 1    
   134   69   70 1    
   135   69  134 1    
   136   69  135 1    
   137   70   71 1    
   138   71  136 1    
   139   71  137 1    
@<TRIPOS>SUBSTRUCTURE
     1 UNK         1 GROUP             0       ****    0 ROOT    
