@<TRIPOS>MOLECULE
3R137
137   139    1
SMALL
USER_CHARGES


@<TRIPOS>ATOM
      1 CA         29.2904   -4.4675    3.8380 C.3       0 UNK        -0.2020 
      2 C          28.6148   -3.2608    3.2044 C.2       0 UNK         0.4855 
      3 O          28.1768   -2.3584    3.9180 O.2       0 UNK        -0.5197 
      4 N          28.5232   -3.2379    1.8684 N.am      1 UNK        -0.4892 
      5 CA         27.8931   -2.1646    1.0867 C.3       1 UNK         0.0835 
      6 C6         28.4200   -2.1380   -0.3693 C.3       12 UNK        -0.0855 
      7 S7         28.1871   -3.7055   -1.2838 S.3       12 UNK        -0.2931 
      8 C8         29.7155   -3.7830   -2.2733 C.3       12 UNK         0.0378 
      9 C9         29.6370   -2.9234   -3.5297 C.ar      12 UNK        -0.0802 
     10 C10        29.8102   -1.5375   -3.4548 C.ar      12 UNK        -0.0944 
     11 C11        29.7606   -0.7498   -4.6083 C.ar      12 UNK        -0.0787 
     12 C12        29.5657   -1.3611   -5.8489 C.ar      12 UNK        -0.0862 
     13 C13        29.4100   -2.7479   -5.9433 C.ar      12 UNK        -0.0733 
     14 C14        29.4279   -3.5204   -4.7775 C.ar      12 UNK        -0.0832 
     15 C15        29.2733   -3.4222   -7.3029 C.3       12 UNK         0.0240 
     16 S16        27.5411   -3.5627   -7.8478 S.3       12 UNK        -0.2522 
     17 C17        27.1742   -1.8429   -8.3350 C.3       12 UNK        -0.0967 
     18 CA         26.1009   -1.1589   -7.4499 C.3       5 UNK         0.0660 
     19 N          26.3592   -1.3250   -6.0185 N.am      5 UNK        -0.4015 
     20 C          25.4501   -1.1537   -5.0549 C.2       4 UNK         0.4946 
     21 O          24.2669   -0.8680   -5.2604 O.2       4 UNK        -0.5353 
     22 CA         25.9524   -1.3094   -3.6104 C.3       4 UNK         0.0277 
     23 CB         26.0819    0.0718   -2.9457 C.3       4 UNK        -0.1981 
     24 N          25.0621   -2.1535   -2.8114 N.am      4 UNK        -0.4209 
     25 C          24.8155   -3.4495   -3.0524 C.2       3 UNK         0.4942 
     26 O          25.3479   -4.0964   -3.9560 O.2       3 UNK        -0.5208 
     27 CA         23.8371   -4.1358   -2.0899 C.3       3 UNK         0.0250 
     28 CB         23.6233   -5.6308   -2.3982 C.3       3 UNK        -0.1990 
     29 N          24.3346   -3.9865   -0.7250 N.am      3 UNK        -0.4232 
     30 C          23.5926   -3.6659    0.3414 C.2       2 UNK         0.4993 
     31 O          22.3758   -3.4795    0.2983 O.2       2 UNK        -0.5286 
     32 CA         24.3213   -3.5318    1.6912 C.3       2 UNK         0.0209 
     33 CB         24.0710   -4.7738    2.5628 C.3       2 UNK        -0.1931 
     34 N          25.7675   -3.3221    1.5678 N.am      2 UNK        -0.4546 
     35 C          26.3489   -2.1933    1.1354 C.2       1 UNK         0.5154 
     36 O          25.7142   -1.2005    0.7759 O.2       1 UNK        -0.5181 
     37 C          26.0145    0.3365   -7.8085 C.2       5 UNK         0.5014 
     38 O          26.6482    1.1660   -7.1492 O.2       5 UNK        -0.5248 
     39 N          25.2773    0.6466   -8.8812 N.am      6 UNK        -0.4434 
     40 CA         25.2493    1.9762   -9.4891 C.3       6 UNK         0.0363 
     41 CB         24.0205    2.0883  -10.4064 C.3       6 UNK        -0.1936 
     42 C          26.5409    2.2392  -10.2831 C.2       6 UNK         0.5081 
     43 O          27.0436    1.3215  -10.9349 O.2       6 UNK        -0.5248 
     44 N          26.9958    3.4989  -10.2451 N.am      7 UNK        -0.4718 
     45 CA         28.1874    4.0747  -10.8834 C.3       7 UNK         0.0273 
     46 CB         28.2205    3.8044  -12.4019 C.3       7 UNK        -0.1935 
     47 C          29.5124    3.6545  -10.2221 C.2       7 UNK         0.5018 
     48 O          29.7178    2.4866   -9.8810 O.2       7 UNK        -0.5186 
     49 N          30.4333    4.6235  -10.1191 N.am      8 UNK        -0.4240 
     50 CA         31.7865    4.4485   -9.5781 C.3       8 UNK         0.0235 
     51 CB         32.4811    5.8162   -9.4844 C.3       8 UNK        -0.2000 
     52 C          32.6530    3.4595  -10.3773 C.2       8 UNK         0.4941 
     53 O          33.5526    2.8514   -9.8001 O.2       8 UNK        -0.5273 
     54 N          32.3442    3.2807  -11.6699 N.am      9 UNK        -0.4262 
     55 CA         32.9620    2.2892  -12.5530 C.3       9 UNK         0.0264 
     56 CB         32.4639    2.5106  -13.9905 C.3       9 UNK        -0.1955 
     57 C          32.7138    0.8330  -12.1154 C.2       9 UNK         0.5031 
     58 O          33.5724   -0.0152  -12.3619 O.2       9 UNK        -0.5390 
     59 N          31.5653    0.5666  -11.4747 N.am      10 UNK        -0.4204 
     60 CA         31.2431   -0.7364  -10.8909 C.3       10 UNK         0.0237 
     61 CB         29.7189   -0.9303  -10.8689 C.3       10 UNK        -0.1985 
     62 C          31.8280   -0.8790   -9.4775 C.2       10 UNK         0.4970 
     63 O          32.2896   -1.9645   -9.1254 O.2       10 UNK        -0.4914 
     64 N          31.7857    0.2079   -8.6958 N.am      11 UNK        -0.4285 
     65 CA         32.3113    0.2729   -7.3248 C.3       11 UNK         0.1007 
     66 C          33.8619    0.2046   -7.2321 C.2       11 UNK         0.5703 
     67 N          34.5983    0.8297   -8.1412 N.am      11 UNK        -0.7361 
     68 O          34.4040   -0.4403   -6.3378 O.2       11 UNK        -0.4986 
     69 C69        31.7224    1.4973   -6.5761 C.3       12 UNK        -0.0947 
     70 S70        31.6465    1.2787   -4.7659 S.3       12 UNK        -0.2240 
     71 C71        29.9188    0.7604   -4.5082 C.3       12 UNK         0.0194 
     72 H72        29.6300   -5.1847    3.0910 H         1 UNK         0.0906 
     73 H73        30.1552   -4.1501    4.4201 H         1 UNK         0.0906 
     74 H74        28.5977   -4.9771    4.5073 H         1 UNK         0.0906 
     75 H75        28.8983   -4.0025    1.3230 H         1 UNK         0.3140 
     76 H76        28.1794   -1.2151    1.5455 H         1 UNK         0.1085 
     77 H77        27.9576   -1.3305   -0.9362 H         1 UNK         0.0836 
     78 H78        29.4835   -1.8980   -0.3407 H         1 UNK         0.0836 
     79 H79        29.8922   -4.8248   -2.5451 H         1 UNK         0.0731 
     80 H80        30.5736   -3.4860   -1.6687 H         1 UNK         0.0731 
     81 H81        29.9856   -1.0675   -2.4979 H         1 UNK         0.1312 
     82 H82        29.5574   -0.7506   -6.7406 H         1 UNK         0.1406 
     83 H83        29.3036   -4.5929   -4.8457 H         1 UNK         0.1631 
     84 H84        29.7030   -4.4242   -7.2594 H         1 UNK         0.0717 
     85 H85        29.8542   -2.8853   -8.0536 H         1 UNK         0.0717 
     86 H86        28.0973   -1.2639   -8.3465 H         1 UNK         0.0934 
     87 H87        26.8391   -1.8628   -9.3740 H         1 UNK         0.0934 
     88 H88        25.1356   -1.6220   -7.6670 H         1 UNK         0.0739 
     89 H89        27.3087   -1.5611   -5.7661 H         1 UNK         0.3093 
     90 H90        26.9331   -1.7885   -3.6190 H         1 UNK         0.0818 
     91 H91        26.8200    0.6836   -3.4661 H         1 UNK         0.0819 
     92 H92        25.1369    0.6166   -2.9649 H         1 UNK         0.0819 
     93 H93        26.3957   -0.0035   -1.9058 H         1 UNK         0.0819 
     94 H94        24.5794   -1.7047   -2.0464 H         1 UNK         0.3041 
     95 H95        22.8795   -3.6227   -2.2029 H         1 UNK         0.0784 
     96 H96        23.2468   -5.7712   -3.4123 H         1 UNK         0.0793 
     97 H97        24.5518   -6.1964   -2.3110 H         1 UNK         0.0793 
     98 H98        22.8956   -6.0744   -1.7184 H         1 UNK         0.0793 
     99 H99        25.3335   -4.0901   -0.6038 H         1 UNK         0.3024 
    100 H100       23.8952   -2.6633    2.1991 H         1 UNK         0.1171 
    101 H101       24.4852   -5.6755    2.1099 H         1 UNK         0.0786 
    102 H102       24.5132   -4.6600    3.5528 H         1 UNK         0.0786 
    103 H103       23.0025   -4.9423    2.7054 H         1 UNK         0.0786 
    104 H104       26.3690   -4.0850    1.8433 H         1 UNK         0.2977 
    105 H105       24.8279   -0.0935   -9.4007 H         1 UNK         0.3127 
    106 H106       25.1573    2.7207   -8.6947 H         1 UNK         0.0770 
    107 H107       23.9575    3.0813  -10.8537 H         1 UNK         0.0814 
    108 H108       23.0951    1.9236   -9.8541 H         1 UNK         0.0814 
    109 H109       24.0586    1.3664  -11.2233 H         1 UNK         0.0814 
    110 H110       26.4857    4.1479   -9.6613 H         1 UNK         0.2983 
    111 H111       28.0808    5.1527  -10.7494 H         1 UNK         0.0947 
    112 H112       29.0088    4.3834  -12.8843 H         1 UNK         0.0806 
    113 H113       27.2796    4.0831  -12.8763 H         1 UNK         0.0806 
    114 H114       28.4118    2.7547  -12.6272 H         1 UNK         0.0806 
    115 H115       30.1961    5.5538  -10.4339 H         1 UNK         0.3000 
    116 H116       31.6863    4.0462   -8.5680 H         1 UNK         0.0850 
    117 H117       32.5884    6.2842  -10.4638 H         1 UNK         0.0810 
    118 H118       33.4814    5.7168   -9.0598 H         1 UNK         0.0810 
    119 H119       31.9268    6.5009   -8.8422 H         1 UNK         0.0810 
    120 H120       31.6014    3.8398  -12.0624 H         1 UNK         0.3040 
    121 H121       34.0412    2.4565  -12.5337 H         1 UNK         0.0766 
    122 H122       32.7119    3.5103  -14.3480 H         1 UNK         0.0812 
    123 H123       31.3835    2.3825  -14.0692 H         1 UNK         0.0812 
    124 H124       32.9268    1.7999  -14.6768 H         1 UNK         0.0812 
    125 H125       30.9175    1.3220  -11.2825 H         1 UNK         0.3205 
    126 H126       31.6702   -1.5265  -11.5127 H         1 UNK         0.0754 
    127 H127       29.4560   -1.9136  -10.4770 H         1 UNK         0.0769 
    128 H128       29.2946   -0.8572  -11.8704 H         1 UNK         0.0769 
    129 H129       29.2249   -0.1840  -10.2458 H         1 UNK         0.0769 
    130 H130       31.3737    1.0554   -9.0611 H         1 UNK         0.2981 
    131 H131       31.9529   -0.6268   -6.8246 H         1 UNK         0.0541 
    132 H132       34.1662    1.4377   -8.8343 H         1 UNK         0.3459 
    133 H133       35.6019    0.7730   -8.0845 H         1 UNK         0.3459 
    134 H134       30.7138    1.7121   -6.9331 H         1 UNK         0.0612 
    135 H135       32.3009    2.3970   -6.7931 H         1 UNK         0.0612 
    136 H136       29.6042    1.0972   -3.5192 H         1 UNK         0.0624 
    137 H137       29.2562    1.2605   -5.2163 H         1 UNK         0.0624 
@<TRIPOS>BOND
     1    1    2 1    
     2    1   72 1    
     3    1   73 1    
     4    1   74 1    
     5    2    3 2    
     6    2    4 am   BACKBONE|DICT|INTERRES
     7    4    5 1    
     8    4   75 1    
     9    5    6 1    
    10    5   35 1    
    11    5   76 1    
    12    6    7 1    
    13    6   77 1    
    14    6   78 1    
    15    7    8 1    
    16    8    9 1    
    17    8   79 1    
    18    8   80 1    
    19    9   10 ar   
    20    9   14 ar   
    21   10   11 ar   
    22   10   81 1    
    23   11   12 ar   
    24   11   71 1    
    25   12   13 ar   
    26   12   82 1    
    27   13   14 ar   
    28   13   15 1    
    29   14   83 1    
    30   15   16 1    
    31   15   84 1    
    32   15   85 1    
    33   16   17 1    
    34   17   18 1    
    35   17   86 1    
    36   17   87 1    
    37   18   19 1    
    38   18   37 1    
    39   18   88 1    
    40   19   20 am   BACKBONE|DICT|INTERRES
    41   19   89 1    
    42   20   21 2    
    43   20   22 1    
    44   22   23 1    
    45   22   24 1    
    46   22   90 1    
    47   23   91 1    
    48   23   92 1    
    49   23   93 1    
    50   24   25 am   BACKBONE|DICT|INTERRES
    51   24   94 1    
    52   25   26 2    
    53   25   27 1    
    54   27   28 1    
    55   27   29 1    
    56   27   95 1    
    57   28   96 1    
    58   28   97 1    
    59   28   98 1    
    60   29   30 am   BACKBONE|DICT|INTERRES
    61   29   99 1    
    62   30   31 2    
    63   30   32 1    
    64   32   33 1    
    65   32   34 1    
    66   32  100 1    
    67   33  101 1    
    68   33  102 1    
    69   33  103 1    
    70   34   35 am   BACKBONE|DICT|INTERRES
    71   34  104 1    
    72   35   36 2    
    73   37   38 2    
    74   37   39 am   BACKBONE|DICT|INTERRES
    75   39   40 1    
    76   39  105 1    
    77   40   41 1    
    78   40   42 1    
    79   40  106 1    
    80   41  107 1    
    81   41  108 1    
    82   41  109 1    
    83   42   43 2    
    84   42   44 am   BACKBONE|DICT|INTERRES
    85   44   45 1    
    86   44  110 1    
    87   45   46 1    
    88   45   47 1    
    89   45  111 1    
    90   46  112 1    
    91   46  113 1    
    92   46  114 1    
    93   47   48 2    
    94   47   49 am   BACKBONE|DICT|INTERRES
    95   49   50 1    
    96   49  115 1    
    97   50   51 1    
    98   50   52 1    
    99   50  116 1    
   100   51  117 1    
   101   51  118 1    
   102   51  119 1    
   103   52   53 2    
   104   52   54 am   BACKBONE|DICT|INTERRES
   105   54   55 1    
   106   54  120 1    
   107   55   56 1    
   108   55   57 1    
   109   55  121 1    
   110   56  122 1    
   111   56  123 1    
   112   56  124 1    
   113   57   58 2    
   114   57   59 am   BACKBONE|DICT|INTERRES
   115   59   60 1    
   116   59  125 1    
   117   60   61 1    
   118   60   62 1    
   119   60  126 1    
   120   61  127 1    
   121   61  128 1    
   122   61  129 1    
   123   62   63 2    
   124   62   64 am   BACKBONE|DICT|INTERRES
   125   64   65 1    
   126   64  130 1    
   127   65   66 1    
   128   65   69 1    
   129   65  131 1    
   130   66   67 am   BACKBONE|DICT|INTERRES
   131   66   68 2    
   132   67  132 1    
   133   67  133 1    
   134   69   70 1    
   135   69  134 1    
   136   69  135 1    
   137   70   71 1    
   138   71  136 1    
   139   71  137 1    
@<TRIPOS>SUBSTRUCTURE
     1 UNK         1 GROUP             0       ****    0 ROOT    
