@<TRIPOS>MOLECULE
3R137
137   139    1
SMALL
USER_CHARGES


@<TRIPOS>ATOM
      1 CA         25.5955   -6.1313   -8.2087 C.3       0 UNK        -0.2020 
      2 C          25.7671   -6.2884   -6.7052 C.2       0 UNK         0.4855 
      3 O          25.1056   -7.1317   -6.0995 O.2       0 UNK        -0.5197 
      4 N          26.6467   -5.4820   -6.0969 N.am      1 UNK        -0.4892 
      5 CA         26.9192   -5.4739   -4.6524 C.3       1 UNK         0.0835 
      6 C6         28.2599   -4.7549   -4.3421 C.3       12 UNK        -0.0855 
      7 S7         29.0601   -5.4178   -2.8420 S.3       12 UNK        -0.2931 
      8 C8         30.8172   -5.0171   -3.1427 C.3       12 UNK         0.0378 
      9 C9         31.2193   -3.5534   -2.9399 C.ar      12 UNK        -0.0802 
     10 C10        32.4753   -3.1463   -3.4022 C.ar      12 UNK        -0.0944 
     11 C11        32.9172   -1.8323   -3.2230 C.ar      12 UNK        -0.0787 
     12 C12        32.0950   -0.9152   -2.5655 C.ar      12 UNK        -0.0862 
     13 C13        30.8342   -1.2990   -2.1033 C.ar      12 UNK        -0.0733 
     14 C14        30.4042   -2.6175   -2.2863 C.ar      12 UNK        -0.0832 
     15 C15        29.9449   -0.2936   -1.3861 C.3       12 UNK         0.0240 
     16 S16        28.4860    0.1654   -2.3721 S.3       12 UNK        -0.2522 
     17 C17        29.2169    1.1423   -3.7302 C.3       12 UNK        -0.0967 
     18 CA         28.3176    1.1498   -4.9911 C.3       5 UNK         0.0660 
     19 N          26.9619    1.6440   -4.6985 N.am      5 UNK        -0.4015 
     20 C          25.9264    1.6958   -5.5475 C.2       4 UNK         0.4946 
     21 O          26.0249    1.4429   -6.7497 O.2       4 UNK        -0.5353 
     22 CA         24.5577    2.0890   -4.9563 C.3       4 UNK         0.0277 
     23 CB         23.4502    2.1324   -6.0263 C.3       4 UNK        -0.1981 
     24 N          24.1532    1.1653   -3.8942 N.am      4 UNK        -0.4209 
     25 C          24.6223    1.1748   -2.6390 C.2       3 UNK         0.4942 
     26 O          25.3864    2.0424   -2.2133 O.2       3 UNK        -0.5208 
     27 CA         24.2039    0.0175   -1.7104 C.3       3 UNK         0.0250 
     28 CB         23.0839    0.4723   -0.7604 C.3       3 UNK        -0.1990 
     29 N          23.7827   -1.2101   -2.4008 N.am      3 UNK        -0.4232 
     30 C          24.5586   -1.9443   -3.2112 C.2       2 UNK         0.4993 
     31 O          25.7142   -1.6397   -3.5115 O.2       2 UNK        -0.5286 
     32 CA         23.9154   -3.2037   -3.8180 C.3       2 UNK         0.0209 
     33 CB         22.8436   -2.8284   -4.8571 C.3       2 UNK        -0.1931 
     34 N          24.9309   -4.0340   -4.4667 N.am      2 UNK        -0.4546 
     35 C          25.7549   -4.8747   -3.8274 C.2       1 UNK         0.5154 
     36 O          25.6208   -5.1811   -2.6410 O.2       1 UNK        -0.5181 
     37 C          29.0278    1.8783   -6.1532 C.2       5 UNK         0.5014 
     38 O          29.9326    1.3036   -6.7606 O.2       5 UNK        -0.5248 
     39 N          28.5958    3.1037   -6.4806 N.am      6 UNK        -0.4434 
     40 CA         29.0341    3.8582   -7.6570 C.3       6 UNK         0.0363 
     41 CB         28.4903    5.2926   -7.5662 C.3       6 UNK        -0.1936 
     42 C          28.6284    3.2145   -8.9984 C.2       6 UNK         0.5081 
     43 O          29.2948    3.4709  -10.0007 O.2       6 UNK        -0.5248 
     44 N          27.5655    2.3980   -8.9994 N.am      7 UNK        -0.4718 
     45 CA         27.0609    1.6786  -10.1717 C.3       7 UNK         0.0273 
     46 CB         25.6234    2.1397  -10.4647 C.3       7 UNK        -0.1935 
     47 C          27.0995    0.1578   -9.9628 C.2       7 UNK         0.5018 
     48 O          27.4481   -0.5693  -10.8923 O.2       7 UNK        -0.5186 
     49 N          26.7520   -0.3011   -8.7526 N.am      8 UNK        -0.4240 
     50 CA         26.6380   -1.7160   -8.3850 C.3       8 UNK         0.0235 
     51 CB         25.6122   -1.8464   -7.2488 C.3       8 UNK        -0.2000 
     52 C          27.9724   -2.3741   -7.9896 C.2       8 UNK         0.4941 
     53 O          27.9730   -3.5598   -7.6562 O.2       8 UNK        -0.5273 
     54 N          29.0712   -1.6146   -8.0203 N.am      9 UNK        -0.4262 
     55 CA         30.4326   -2.0956   -7.7764 C.3       9 UNK         0.0264 
     56 CB         30.7559   -2.0539   -6.2732 C.3       9 UNK        -0.1955 
     57 C          31.4691   -1.3084   -8.5930 C.2       9 UNK         0.5031 
     58 O          32.4943   -1.8823   -8.9607 O.2       9 UNK        -0.5390 
     59 N          31.1764   -0.0269   -8.8677 N.am      10 UNK        -0.4204 
     60 CA         32.0258    0.9739   -9.5255 C.3       10 UNK         0.0237 
     61 CB         32.4939    0.5250  -10.9271 C.3       10 UNK        -0.1985 
     62 C          33.1673    1.4404   -8.6038 C.2       10 UNK         0.4970 
     63 O          34.2755    1.7034   -9.0738 O.2       10 UNK        -0.4914 
     64 N          32.8578    1.5427   -7.3057 N.am      11 UNK        -0.4285 
     65 CA         33.7742    1.9598   -6.2341 C.3       11 UNK         0.1007 
     66 C          33.6190    3.4572   -5.8378 C.2       11 UNK         0.5703 
     67 N          32.8001    4.2474   -6.5220 N.am      11 UNK        -0.7361 
     68 O          34.2689    3.9201   -4.9034 O.2       11 UNK        -0.4986 
     69 C69        33.6447    1.0189   -5.0082 C.3       12 UNK        -0.0947 
     70 S70        34.1918   -0.6782   -5.3926 S.3       12 UNK        -0.2240 
     71 C71        34.2877   -1.4099   -3.7301 C.3       12 UNK         0.0194 
     72 H72        26.2877   -5.4006   -8.6259 H         1 UNK         0.0906 
     73 H73        25.7709   -7.0840   -8.7077 H         1 UNK         0.0906 
     74 H74        24.5808   -5.8075   -8.4386 H         1 UNK         0.0906 
     75 H75        27.1751   -4.8082   -6.6549 H         1 UNK         0.3140 
     76 H76        27.0107   -6.5194   -4.3486 H         1 UNK         0.1085 
     77 H77        28.9545   -4.8952   -5.1721 H         1 UNK         0.0836 
     78 H78        28.1294   -3.6743   -4.2459 H         1 UNK         0.0836 
     79 H79        31.4177   -5.6252   -2.4650 H         1 UNK         0.0731 
     80 H80        31.0832   -5.3348   -4.1522 H         1 UNK         0.0731 
     81 H81        33.1158   -3.8578   -3.9058 H         1 UNK         0.1312 
     82 H82        32.4373    0.0994   -2.4162 H         1 UNK         0.1406 
     83 H83        29.4307   -2.9004   -1.9119 H         1 UNK         0.1631 
     84 H84        30.5004    0.6089   -1.1263 H         1 UNK         0.0717 
     85 H85        29.6076   -0.7262   -0.4432 H         1 UNK         0.0717 
     86 H86        29.3949    2.1577   -3.3710 H         1 UNK         0.0934 
     87 H87        30.1951    0.7243   -3.9729 H         1 UNK         0.0934 
     88 H88        28.1977    0.1142   -5.3175 H         1 UNK         0.0739 
     89 H89        26.7654    1.8315   -3.7202 H         1 UNK         0.3093 
     90 H90        24.6588    3.0925   -4.5376 H         1 UNK         0.0818 
     91 H91        22.4983    2.4505   -5.6007 H         1 UNK         0.0819 
     92 H92        23.7005    2.8386   -6.8193 H         1 UNK         0.0819 
     93 H93        23.3011    1.1583   -6.4942 H         1 UNK         0.0819 
     94 H94        23.5542    0.4004   -4.1663 H         1 UNK         0.3041 
     95 H95        25.0805   -0.2345   -1.1094 H         1 UNK         0.0784 
     96 H96        23.3783    1.3668   -0.2093 H         1 UNK         0.0793 
     97 H97        22.1671    0.7103   -1.3013 H         1 UNK         0.0793 
     98 H98        22.8510   -0.2961   -0.0228 H         1 UNK         0.0793 
     99 H99        22.8404   -1.5243   -2.2164 H         1 UNK         0.3024 
    100 H100       23.4474   -3.7759   -3.0133 H         1 UNK         0.1171 
    101 H101       22.4276   -3.7158   -5.3348 H         1 UNK         0.0786 
    102 H102       23.2421   -2.1833   -5.6398 H         1 UNK         0.0786 
    103 H103       22.0118   -2.2977   -4.3926 H         1 UNK         0.0786 
    104 H104       25.1391   -3.8276   -5.4309 H         1 UNK         0.2977 
    105 H105       27.8516    3.5084   -5.9319 H         1 UNK         0.3127 
    106 H106       30.1239    3.9042   -7.6373 H         1 UNK         0.0770 
    107 H107       28.8383    5.7934   -6.6626 H         1 UNK         0.0814 
    108 H108       27.3997    5.3119   -7.5650 H         1 UNK         0.0814 
    109 H109       28.8253    5.8910   -8.4147 H         1 UNK         0.0814 
    110 H110       27.0733    2.2347   -8.1249 H         1 UNK         0.2983 
    111 H111       27.6728    1.8975  -11.0497 H         1 UNK         0.0947 
    112 H112       25.2111    1.6135  -11.3268 H         1 UNK         0.0806 
    113 H113       25.5901    3.2058  -10.6897 H         1 UNK         0.0806 
    114 H114       24.9589    1.9560   -9.6191 H         1 UNK         0.0806 
    115 H115       26.4628    0.3666   -8.0370 H         1 UNK         0.3000 
    116 H116       26.2552   -2.2664   -9.2472 H         1 UNK         0.0850 
    117 H117       25.3699   -2.8928   -7.0684 H         1 UNK         0.0810 
    118 H118       24.6799   -1.3383   -7.4961 H         1 UNK         0.0810 
    119 H119       25.9868   -1.4244   -6.3148 H         1 UNK         0.0810 
    120 H120       28.9654   -0.6632   -8.3353 H         1 UNK         0.3040 
    121 H121       30.4989   -3.1336   -8.1105 H         1 UNK         0.0766 
    122 H122       31.7495   -2.4611   -6.0860 H         1 UNK         0.0812 
    123 H123       30.7434   -1.0397   -5.8757 H         1 UNK         0.0812 
    124 H124       30.0496   -2.6470   -5.6935 H         1 UNK         0.0812 
    125 H125       30.4080    0.3800   -8.3442 H         1 UNK         0.3205 
    126 H126       31.3925    1.8490   -9.6702 H         1 UNK         0.0754 
    127 H127       32.9638    1.3518  -11.4610 H         1 UNK         0.0769 
    128 H128       31.6558    0.1825  -11.5339 H         1 UNK         0.0769 
    129 H129       33.2262   -0.2809  -10.8764 H         1 UNK         0.0769 
    130 H130       31.9068    1.3434   -7.0146 H         1 UNK         0.2981 
    131 H131       34.8008    1.8766   -6.5951 H         1 UNK         0.0541 
    132 H132       32.2950    3.8909   -7.3150 H         1 UNK         0.3459 
    133 H133       32.7187    5.2168   -6.2595 H         1 UNK         0.3459 
    134 H134       32.6113    0.9912   -4.6605 H         1 UNK         0.0612 
    135 H135       34.2482    1.3810   -4.1741 H         1 UNK         0.0612 
    136 H136       34.7514   -0.7060   -3.0375 H         1 UNK         0.0624 
    137 H137       34.9510   -2.2751   -3.7704 H         1 UNK         0.0624 
@<TRIPOS>BOND
     1    1    2 1    
     2    1   72 1    
     3    1   73 1    
     4    1   74 1    
     5    2    3 2    
     6    2    4 am   BACKBONE|DICT|INTERRES
     7    4    5 1    
     8    4   75 1    
     9    5    6 1    
    10    5   35 1    
    11    5   76 1    
    12    6    7 1    
    13    6   77 1    
    14    6   78 1    
    15    7    8 1    
    16    8    9 1    
    17    8   79 1    
    18    8   80 1    
    19    9   10 ar   
    20    9   14 ar   
    21   10   11 ar   
    22   10   81 1    
    23   11   12 ar   
    24   11   71 1    
    25   12   13 ar   
    26   12   82 1    
    27   13   14 ar   
    28   13   15 1    
    29   14   83 1    
    30   15   16 1    
    31   15   84 1    
    32   15   85 1    
    33   16   17 1    
    34   17   18 1    
    35   17   86 1    
    36   17   87 1    
    37   18   19 1    
    38   18   37 1    
    39   18   88 1    
    40   19   20 am   BACKBONE|DICT|INTERRES
    41   19   89 1    
    42   20   21 2    
    43   20   22 1    
    44   22   23 1    
    45   22   24 1    
    46   22   90 1    
    47   23   91 1    
    48   23   92 1    
    49   23   93 1    
    50   24   25 am   BACKBONE|DICT|INTERRES
    51   24   94 1    
    52   25   26 2    
    53   25   27 1    
    54   27   28 1    
    55   27   29 1    
    56   27   95 1    
    57   28   96 1    
    58   28   97 1    
    59   28   98 1    
    60   29   30 am   BACKBONE|DICT|INTERRES
    61   29   99 1    
    62   30   31 2    
    63   30   32 1    
    64   32   33 1    
    65   32   34 1    
    66   32  100 1    
    67   33  101 1    
    68   33  102 1    
    69   33  103 1    
    70   34   35 am   BACKBONE|DICT|INTERRES
    71   34  104 1    
    72   35   36 2    
    73   37   38 2    
    74   37   39 am   BACKBONE|DICT|INTERRES
    75   39   40 1    
    76   39  105 1    
    77   40   41 1    
    78   40   42 1    
    79   40  106 1    
    80   41  107 1    
    81   41  108 1    
    82   41  109 1    
    83   42   43 2    
    84   42   44 am   BACKBONE|DICT|INTERRES
    85   44   45 1    
    86   44  110 1    
    87   45   46 1    
    88   45   47 1    
    89   45  111 1    
    90   46  112 1    
    91   46  113 1    
    92   46  114 1    
    93   47   48 2    
    94   47   49 am   BACKBONE|DICT|INTERRES
    95   49   50 1    
    96   49  115 1    
    97   50   51 1    
    98   50   52 1    
    99   50  116 1    
   100   51  117 1    
   101   51  118 1    
   102   51  119 1    
   103   52   53 2    
   104   52   54 am   BACKBONE|DICT|INTERRES
   105   54   55 1    
   106   54  120 1    
   107   55   56 1    
   108   55   57 1    
   109   55  121 1    
   110   56  122 1    
   111   56  123 1    
   112   56  124 1    
   113   57   58 2    
   114   57   59 am   BACKBONE|DICT|INTERRES
   115   59   60 1    
   116   59  125 1    
   117   60   61 1    
   118   60   62 1    
   119   60  126 1    
   120   61  127 1    
   121   61  128 1    
   122   61  129 1    
   123   62   63 2    
   124   62   64 am   BACKBONE|DICT|INTERRES
   125   64   65 1    
   126   64  130 1    
   127   65   66 1    
   128   65   69 1    
   129   65  131 1    
   130   66   67 am   BACKBONE|DICT|INTERRES
   131   66   68 2    
   132   67  132 1    
   133   67  133 1    
   134   69   70 1    
   135   69  134 1    
   136   69  135 1    
   137   70   71 1    
   138   71  136 1    
   139   71  137 1    
@<TRIPOS>SUBSTRUCTURE
     1 UNK         1 GROUP             0       ****    0 ROOT    
