@<TRIPOS>MOLECULE
3R137
137   139    1
SMALL
USER_CHARGES


@<TRIPOS>ATOM
      1 CA         24.6371   -6.7839   -3.6497 C.3       0 UNK        -0.2020 
      2 C          25.6458   -5.6882   -3.3424 C.2       0 UNK         0.4855 
      3 O          25.9761   -4.9018   -4.2288 O.2       0 UNK        -0.5197 
      4 N          26.1209   -5.6221   -2.0899 N.am      1 UNK        -0.4892 
      5 CA         27.1140   -4.6644   -1.5800 C.3       1 UNK         0.0835 
      6 C6         28.5438   -4.9551   -2.1153 C.3       12 UNK        -0.0855 
      7 S7         29.8335   -4.5461   -0.8923 S.3       12 UNK        -0.2931 
      8 C8         31.1981   -3.9549   -1.9561 C.3       12 UNK         0.0378 
      9 C9         31.2257   -2.4497   -2.2353 C.ar      12 UNK        -0.0802 
     10 C10        31.9593   -1.9886   -3.3335 C.ar      12 UNK        -0.0944 
     11 C11        32.0789   -0.6205   -3.5964 C.ar      12 UNK        -0.0787 
     12 C12        31.4674    0.2978   -2.7389 C.ar      12 UNK        -0.0862 
     13 C13        30.7321   -0.1408   -1.6335 C.ar      12 UNK        -0.0733 
     14 C14        30.6118   -1.5138   -1.3914 C.ar      12 UNK        -0.0832 
     15 C15        30.1038    0.8622   -0.6693 C.3       12 UNK         0.0240 
     16 S16        29.0128    2.0756   -1.4854 S.3       12 UNK        -0.2522 
     17 C17        27.8042    0.9876   -2.3062 C.3       12 UNK        -0.0967 
     18 CA         27.9882    0.9876   -3.8464 C.3       5 UNK         0.0660 
     19 N          27.6995   -0.3226   -4.4359 N.am      5 UNK        -0.4015 
     20 C          27.8913   -0.6440   -5.7241 C.2       4 UNK         0.4946 
     21 O          28.3778    0.1165   -6.5598 O.2       4 UNK        -0.5353 
     22 CA         27.3992   -2.0290   -6.1735 C.3       4 UNK         0.0277 
     23 CB         28.4235   -3.1119   -5.8127 C.3       4 UNK        -0.1981 
     24 N          26.0963   -2.3633   -5.5961 N.am      4 UNK        -0.4209 
     25 C          24.9637   -1.6967   -5.8635 C.2       3 UNK         0.4942 
     26 O          24.8852   -0.7812   -6.6826 O.2       3 UNK        -0.5208 
     27 CA         23.7241   -2.0731   -5.0375 C.3       3 UNK         0.0250 
     28 CB         23.0605   -3.3486   -5.5809 C.3       3 UNK        -0.1990 
     29 N          24.0366   -2.2319   -3.6148 N.am      3 UNK        -0.4232 
     30 C          24.4270   -1.2304   -2.8125 C.2       2 UNK         0.4993 
     31 O          24.5294   -0.0608   -3.1789 O.2       2 UNK        -0.5286 
     32 CA         24.8018   -1.5931   -1.3663 C.3       2 UNK         0.0209 
     33 CB         23.5613   -1.5499   -0.4602 C.3       2 UNK        -0.1931 
     34 N          25.4547   -2.8997   -1.2451 N.am      2 UNK        -0.4546 
     35 C          26.6476   -3.2042   -1.7772 C.2       1 UNK         0.5154 
     36 O          27.3136   -2.4079   -2.4411 O.2       1 UNK        -0.5181 
     37 C          27.1833    2.1254   -4.5103 C.2       5 UNK         0.5014 
     38 O          27.7515    3.1775   -4.8051 O.2       5 UNK        -0.5248 
     39 N          25.8848    1.8879   -4.7512 N.am      6 UNK        -0.4434 
     40 CA         24.9855    2.8017   -5.4586 C.3       6 UNK         0.0363 
     41 CB         23.5346    2.3159   -5.3143 C.3       6 UNK        -0.1936 
     42 C          25.3543    2.9825   -6.9411 C.2       6 UNK         0.5081 
     43 O          25.2460    4.0983   -7.4512 O.2       6 UNK        -0.5248 
     44 N          25.7884    1.8995   -7.6038 N.am      7 UNK        -0.4718 
     45 CA         26.2996    1.9230   -8.9778 C.3       7 UNK         0.0273 
     46 CB         26.4420    0.4884   -9.5111 C.3       7 UNK        -0.1935 
     47 C          27.6293    2.6876   -9.0953 C.2       7 UNK         0.5018 
     48 O          27.7994    3.4522  -10.0458 O.2       7 UNK        -0.5186 
     49 N          28.5320    2.4755   -8.1256 N.am      8 UNK        -0.4240 
     50 CA         29.8179    3.1453   -7.8754 C.3       8 UNK         0.0235 
     51 CB         29.6132    4.6480   -7.6034 C.3       8 UNK        -0.2000 
     52 C          30.9109    2.9287   -8.9387 C.2       8 UNK         0.4941 
     53 O          32.0858    2.8469   -8.5782 O.2       8 UNK        -0.5273 
     54 N          30.5322    2.8501  -10.2191 N.am      9 UNK        -0.4262 
     55 CA         31.4109    2.5529  -11.3474 C.3       9 UNK         0.0264 
     56 CB         30.6663    2.8485  -12.6602 C.3       9 UNK        -0.1955 
     57 C          31.8728    1.0897  -11.2848 C.2       9 UNK         0.5031 
     58 O          31.0508    0.1896  -11.4709 O.2       9 UNK        -0.5390 
     59 N          33.1608    0.8824  -10.9791 N.am      10 UNK        -0.4204 
     60 CA         33.8885   -0.3911  -10.8433 C.3       10 UNK         0.0237 
     61 CB         33.9024   -1.1665  -12.1760 C.3       10 UNK        -0.1985 
     62 C          33.4409   -1.3068   -9.6844 C.2       10 UNK         0.4970 
     63 O          34.2812   -2.0377   -9.1588 O.2       10 UNK        -0.4914 
     64 N          32.1553   -1.2639   -9.3139 N.am      11 UNK        -0.4285 
     65 CA         31.5045   -2.0846   -8.2776 C.3       11 UNK         0.1007 
     66 C          31.4135   -3.6004   -8.6379 C.2       11 UNK         0.5703 
     67 N          31.4923   -3.9797   -9.9085 N.am      11 UNK        -0.7361 
     68 O          31.2420   -4.4475   -7.7647 O.2       11 UNK        -0.4986 
     69 C69        32.0647   -1.8349   -6.8464 C.3       12 UNK        -0.0947 
     70 S70        31.9409   -0.0933   -6.3219 S.3       12 UNK        -0.2240 
     71 C71        32.9036   -0.1280   -4.7785 C.3       12 UNK         0.0194 
     72 H72        24.9994   -7.4052   -4.4683 H         1 UNK         0.0906 
     73 H73        24.4575   -7.4283   -2.7894 H         1 UNK         0.0906 
     74 H74        23.6862   -6.3454   -3.9507 H         1 UNK         0.0906 
     75 H75        25.7906   -6.2951   -1.4110 H         1 UNK         0.3140 
     76 H76        27.1266   -4.8243   -0.5003 H         1 UNK         0.1085 
     77 H77        28.7331   -4.4531   -3.0627 H         1 UNK         0.0836 
     78 H78        28.6518   -6.0195   -2.3294 H         1 UNK         0.0836 
     79 H79        31.1821   -4.5103   -2.8954 H         1 UNK         0.0731 
     80 H80        32.1374   -4.2163   -1.4672 H         1 UNK         0.0731 
     81 H81        32.4584   -2.6989   -3.9782 H         1 UNK         0.1312 
     82 H82        31.5685    1.3581   -2.9265 H         1 UNK         0.1406 
     83 H83        30.0579   -1.8483   -0.5259 H         1 UNK         0.1631 
     84 H84        30.9012    1.3998   -0.1546 H         1 UNK         0.0717 
     85 H85        29.5313    0.3495    0.1053 H         1 UNK         0.0717 
     86 H86        27.9335   -0.0157   -1.9027 H         1 UNK         0.0934 
     87 H87        26.7947    1.2835   -2.0133 H         1 UNK         0.0934 
     88 H88        29.0404    1.1715   -4.0740 H         1 UNK         0.0739 
     89 H89        27.3605   -1.0422   -3.8024 H         1 UNK         0.3093 
     90 H90        27.2841   -2.0152   -7.2592 H         1 UNK         0.0818 
     91 H91        29.3230   -2.9971   -6.4121 H         1 UNK         0.0819 
     92 H92        28.7225   -3.0475   -4.7677 H         1 UNK         0.0819 
     93 H93        28.0381   -4.1147   -5.9976 H         1 UNK         0.0819 
     94 H94        26.0694   -3.1436   -4.9423 H         1 UNK         0.3041 
     95 H95        23.0062   -1.2550   -5.1297 H         1 UNK         0.0784 
     96 H96        22.7773   -3.2212   -6.6266 H         1 UNK         0.0793 
     97 H97        23.7264   -4.2100   -5.5296 H         1 UNK         0.0793 
     98 H98        22.1529   -3.5911   -5.0279 H         1 UNK         0.0793 
     99 H99        24.0166   -3.1689   -3.2408 H         1 UNK         0.3024 
    100 H100       25.5067   -0.8356   -1.0162 H         1 UNK         0.1171 
    101 H101       23.8269   -1.7124    0.5846 H         1 UNK         0.0786 
    102 H102       23.0696   -0.5777   -0.5196 H         1 UNK         0.0786 
    103 H103       22.8261   -2.3046   -0.7423 H         1 UNK         0.0786 
    104 H104       24.9553   -3.6157   -0.7369 H         1 UNK         0.2977 
    105 H105       25.4702    1.0285   -4.3963 H         1 UNK         0.3127 
    106 H106       25.0643    3.7793   -4.9785 H         1 UNK         0.0770 
    107 H107       23.3943    1.3275   -5.7529 H         1 UNK         0.0814 
    108 H108       22.8435    2.9963   -5.8135 H         1 UNK         0.0814 
    109 H109       23.2372    2.2614   -4.2670 H         1 UNK         0.0814 
    110 H110       25.7778    1.0010   -7.1305 H         1 UNK         0.2983 
    111 H111       25.5654    2.4426   -9.5974 H         1 UNK         0.0947 
    112 H112       26.7773    0.4906  -10.5491 H         1 UNK         0.0806 
    113 H113       25.4906   -0.0429   -9.4773 H         1 UNK         0.0806 
    114 H114       27.1664   -0.0891   -8.9372 H         1 UNK         0.0806 
    115 H115       28.3179    1.7335   -7.4593 H         1 UNK         0.3000 
    116 H116       30.1943    2.6940   -6.9554 H         1 UNK         0.0850 
    117 H117       30.5519    5.1227   -7.3148 H         1 UNK         0.0810 
    118 H118       28.9051    4.8084   -6.7901 H         1 UNK         0.0810 
    119 H119       29.2393    5.1741   -8.4822 H         1 UNK         0.0810 
    120 H120       29.5414    2.9676  -10.4162 H         1 UNK         0.3040 
    121 H121       32.2805    3.2114  -11.2933 H         1 UNK         0.0766 
    122 H122       30.3784    3.8979  -12.7248 H         1 UNK         0.0812 
    123 H123       29.7610    2.2474  -12.7567 H         1 UNK         0.0812 
    124 H124       31.2965    2.6306  -13.5234 H         1 UNK         0.0812 
    125 H125       33.7136    1.7024  -10.7668 H         1 UNK         0.3205 
    126 H126       34.9193   -0.1103  -10.6212 H         1 UNK         0.0754 
    127 H127       34.5227   -2.0607  -12.1002 H         1 UNK         0.0769 
    128 H128       34.3099   -0.5585  -12.9837 H         1 UNK         0.0769 
    129 H129       32.9040   -1.4902  -12.4715 H         1 UNK         0.0769 
    130 H130       31.5385   -0.6817   -9.8729 H         1 UNK         0.2981 
    131 H131       30.4665   -1.7502   -8.2693 H         1 UNK         0.0541 
    132 H132       31.6157   -3.2982  -10.6397 H         1 UNK         0.3459 
    133 H133       31.4244   -4.9593  -10.1349 H         1 UNK         0.3459 
    134 H134       31.5176   -2.4293   -6.1157 H         1 UNK         0.0612 
    135 H135       33.1050   -2.1553   -6.7795 H         1 UNK         0.0612 
    136 H136       33.7911   -0.7493   -4.9071 H         1 UNK         0.0624 
    137 H137       33.2695    0.8805   -4.5804 H         1 UNK         0.0624 
@<TRIPOS>BOND
     1    1    2 1    
     2    1   72 1    
     3    1   73 1    
     4    1   74 1    
     5    2    3 2    
     6    2    4 am   BACKBONE|DICT|INTERRES
     7    4    5 1    
     8    4   75 1    
     9    5    6 1    
    10    5   35 1    
    11    5   76 1    
    12    6    7 1    
    13    6   77 1    
    14    6   78 1    
    15    7    8 1    
    16    8    9 1    
    17    8   79 1    
    18    8   80 1    
    19    9   10 ar   
    20    9   14 ar   
    21   10   11 ar   
    22   10   81 1    
    23   11   12 ar   
    24   11   71 1    
    25   12   13 ar   
    26   12   82 1    
    27   13   14 ar   
    28   13   15 1    
    29   14   83 1    
    30   15   16 1    
    31   15   84 1    
    32   15   85 1    
    33   16   17 1    
    34   17   18 1    
    35   17   86 1    
    36   17   87 1    
    37   18   19 1    
    38   18   37 1    
    39   18   88 1    
    40   19   20 am   BACKBONE|DICT|INTERRES
    41   19   89 1    
    42   20   21 2    
    43   20   22 1    
    44   22   23 1    
    45   22   24 1    
    46   22   90 1    
    47   23   91 1    
    48   23   92 1    
    49   23   93 1    
    50   24   25 am   BACKBONE|DICT|INTERRES
    51   24   94 1    
    52   25   26 2    
    53   25   27 1    
    54   27   28 1    
    55   27   29 1    
    56   27   95 1    
    57   28   96 1    
    58   28   97 1    
    59   28   98 1    
    60   29   30 am   BACKBONE|DICT|INTERRES
    61   29   99 1    
    62   30   31 2    
    63   30   32 1    
    64   32   33 1    
    65   32   34 1    
    66   32  100 1    
    67   33  101 1    
    68   33  102 1    
    69   33  103 1    
    70   34   35 am   BACKBONE|DICT|INTERRES
    71   34  104 1    
    72   35   36 2    
    73   37   38 2    
    74   37   39 am   BACKBONE|DICT|INTERRES
    75   39   40 1    
    76   39  105 1    
    77   40   41 1    
    78   40   42 1    
    79   40  106 1    
    80   41  107 1    
    81   41  108 1    
    82   41  109 1    
    83   42   43 2    
    84   42   44 am   BACKBONE|DICT|INTERRES
    85   44   45 1    
    86   44  110 1    
    87   45   46 1    
    88   45   47 1    
    89   45  111 1    
    90   46  112 1    
    91   46  113 1    
    92   46  114 1    
    93   47   48 2    
    94   47   49 am   BACKBONE|DICT|INTERRES
    95   49   50 1    
    96   49  115 1    
    97   50   51 1    
    98   50   52 1    
    99   50  116 1    
   100   51  117 1    
   101   51  118 1    
   102   51  119 1    
   103   52   53 2    
   104   52   54 am   BACKBONE|DICT|INTERRES
   105   54   55 1    
   106   54  120 1    
   107   55   56 1    
   108   55   57 1    
   109   55  121 1    
   110   56  122 1    
   111   56  123 1    
   112   56  124 1    
   113   57   58 2    
   114   57   59 am   BACKBONE|DICT|INTERRES
   115   59   60 1    
   116   59  125 1    
   117   60   61 1    
   118   60   62 1    
   119   60  126 1    
   120   61  127 1    
   121   61  128 1    
   122   61  129 1    
   123   62   63 2    
   124   62   64 am   BACKBONE|DICT|INTERRES
   125   64   65 1    
   126   64  130 1    
   127   65   66 1    
   128   65   69 1    
   129   65  131 1    
   130   66   67 am   BACKBONE|DICT|INTERRES
   131   66   68 2    
   132   67  132 1    
   133   67  133 1    
   134   69   70 1    
   135   69  134 1    
   136   69  135 1    
   137   70   71 1    
   138   71  136 1    
   139   71  137 1    
@<TRIPOS>SUBSTRUCTURE
     1 UNK         1 GROUP             0       ****    0 ROOT    
