@<TRIPOS>MOLECULE
3R137
137   139    1
SMALL
USER_CHARGES


@<TRIPOS>ATOM
      1 CA         23.9962   -5.7201   -3.8872 C.3       0 UNK        -0.2020 
      2 C          24.4428   -4.8299   -2.7381 C.2       0 UNK         0.4855 
      3 O          23.6300   -4.0859   -2.1882 O.2       0 UNK        -0.5197 
      4 N          25.7317   -4.8853   -2.3790 N.am      1 UNK        -0.4892 
      5 CA         26.3610   -4.0690   -1.3355 C.3       1 UNK         0.0835 
      6 C6         27.8163   -4.5123   -1.0321 C.3       12 UNK        -0.0855 
      7 S7         28.8582   -4.8028   -2.5093 S.3       12 UNK        -0.2931 
      8 C8         30.5089   -4.3454   -1.8956 C.3       12 UNK         0.0378 
      9 C9         31.0292   -3.0799   -2.5611 C.ar      12 UNK        -0.0802 
     10 C10        31.9060   -3.1760   -3.6444 C.ar      12 UNK        -0.0944 
     11 C11        32.4419   -2.0271   -4.2319 C.ar      12 UNK        -0.0787 
     12 C12        32.0889   -0.7691   -3.7327 C.ar      12 UNK        -0.0862 
     13 C13        31.2112   -0.6583   -2.6476 C.ar      12 UNK        -0.0733 
     14 C14        30.6780   -1.8180   -2.0715 C.ar      12 UNK        -0.0832 
     15 C15        30.8913    0.7082   -2.0522 C.3       12 UNK         0.0240 
     16 S16        29.9684    1.7927   -3.1872 S.3       12 UNK        -0.2522 
     17 C17        28.3775    0.9194   -3.3517 C.3       12 UNK        -0.0967 
     18 CA         28.0113    0.6722   -4.8366 C.3       5 UNK         0.0660 
     19 N          27.2239   -0.5513   -5.0020 N.am      5 UNK        -0.4015 
     20 C          26.8701   -1.0897   -6.1772 C.2       4 UNK         0.4946 
     21 O          27.2050   -0.6394   -7.2713 O.2       4 UNK        -0.5353 
     22 CA         25.9229   -2.2970   -6.1229 C.3       4 UNK         0.0277 
     23 CB         26.6882   -3.5930   -5.8099 C.3       4 UNK        -0.1981 
     24 N          24.8524   -2.0863   -5.1461 N.am      4 UNK        -0.4209 
     25 C          23.8480   -1.2128   -5.3142 C.2       3 UNK         0.4942 
     26 O          23.6753   -0.5605   -6.3432 O.2       3 UNK        -0.5208 
     27 CA         22.9006   -0.9974   -4.1225 C.3       3 UNK         0.0250 
     28 CB         21.7391   -2.0028   -4.1602 C.3       3 UNK        -0.1990 
     29 N          23.5935   -1.0753   -2.8327 N.am      3 UNK        -0.4232 
     30 C          24.4543   -0.1423   -2.3954 C.2       2 UNK         0.4993 
     31 O          24.7235    0.8806   -3.0222 O.2       2 UNK        -0.5286 
     32 CA         25.1851   -0.4093   -1.0676 C.3       2 UNK         0.0209 
     33 CB         24.3657    0.1279    0.1162 C.3       2 UNK        -0.1931 
     34 N          25.5005   -1.8231   -0.8463 N.am      2 UNK        -0.4546 
     35 C          26.2556   -2.5670   -1.6660 C.2       1 UNK         0.5154 
     36 O          26.7974   -2.1192   -2.6781 O.2       1 UNK        -0.5181 
     37 C          27.3237    1.9031   -5.4700 C.2       5 UNK         0.5014 
     38 O          27.9864    2.6912   -6.1437 O.2       5 UNK        -0.5248 
     39 N          26.0023    2.0344   -5.2771 N.am      6 UNK        -0.4434 
     40 CA         25.1748    3.0688   -5.9032 C.3       6 UNK         0.0363 
     41 CB         23.7644    3.0456   -5.2934 C.3       6 UNK        -0.1936 
     42 C          25.1012    2.9434   -7.4355 C.2       6 UNK         0.5081 
     43 O          25.0617    3.9681   -8.1174 O.2       6 UNK        -0.5248 
     44 N          25.0858    1.7053   -7.9501 N.am      7 UNK        -0.4718 
     45 CA         25.1083    1.4107   -9.3833 C.3       7 UNK         0.0273 
     46 CB         24.6758   -0.0440   -9.6310 C.3       7 UNK        -0.1935 
     47 C          26.4786    1.7033  -10.0170 C.2       7 UNK         0.5018 
     48 O          26.5300    2.4007  -11.0316 O.2       7 UNK        -0.5186 
     49 N          27.5571    1.1847   -9.4142 N.am      8 UNK        -0.4240 
     50 CA         28.9323    1.3704   -9.8717 C.3       8 UNK         0.0235 
     51 CB         29.2107    0.5090  -11.1222 C.3       8 UNK        -0.2000 
     52 C          29.9064    1.0389   -8.7347 C.2       8 UNK         0.4941 
     53 O          30.2393   -0.1303   -8.5412 O.2       8 UNK        -0.5273 
     54 N          30.3731    2.0745   -8.0230 N.am      9 UNK        -0.4262 
     55 CA         31.3921    1.9714   -6.9696 C.3       9 UNK         0.0264 
     56 CB         31.4584    3.2956   -6.1914 C.3       9 UNK        -0.1955 
     57 C          32.7888    1.6086   -7.5049 C.2       9 UNK         0.5031 
     58 O          33.5987    1.0519   -6.7626 O.2       9 UNK        -0.5390 
     59 N          33.0528    1.9259   -8.7795 N.am      10 UNK        -0.4204 
     60 CA         34.2651    1.5593   -9.5080 C.3       10 UNK         0.0237 
     61 CB         34.4702    2.5516  -10.6683 C.3       10 UNK        -0.1985 
     62 C          34.1713    0.0996   -9.9860 C.2       10 UNK         0.4970 
     63 O          33.9602   -0.1472  -11.1749 O.2       10 UNK        -0.4914 
     64 N          34.2954   -0.8374   -9.0389 N.am      11 UNK        -0.4285 
     65 CA         34.2093   -2.2890   -9.2709 C.3       11 UNK         0.1007 
     66 C          35.3586   -2.8892  -10.1346 C.2       11 UNK         0.5703 
     67 N          36.4847   -2.2081  -10.3135 N.am      11 UNK        -0.7361 
     68 O          35.2221   -3.9946  -10.6538 O.2       11 UNK        -0.4986 
     69 C69        34.0676   -3.0801   -7.9445 C.3       12 UNK        -0.0947 
     70 S70        32.6286   -2.5769   -6.9404 S.3       12 UNK        -0.2240 
     71 C71        33.4432   -2.1632   -5.3681 C.3       12 UNK         0.0194 
     72 H72        23.1846   -6.3707   -3.5626 H         1 UNK         0.0906 
     73 H73        23.6344   -5.1116   -4.7155 H         1 UNK         0.0906 
     74 H74        24.8072   -6.3482   -4.2554 H         1 UNK         0.0906 
     75 H75        26.3716   -5.4825   -2.8848 H         1 UNK         0.3140 
     76 H76        25.7857   -4.2415   -0.4230 H         1 UNK         0.1085 
     77 H77        27.7928   -5.4477   -0.4707 H         1 UNK         0.0836 
     78 H78        28.2976   -3.7904   -0.3694 H         1 UNK         0.0836 
     79 H79        31.1888   -5.1759   -2.0920 H         1 UNK         0.0731 
     80 H80        30.5047   -4.2224   -0.8119 H         1 UNK         0.0731 
     81 H81        32.1873   -4.1490   -4.0240 H         1 UNK         0.1312 
     82 H82        32.5117    0.1233   -4.1750 H         1 UNK         0.1406 
     83 H83        30.0060   -1.7434   -1.2274 H         1 UNK         0.1631 
     84 H84        31.8269    1.2019   -1.7859 H         1 UNK         0.0717 
     85 H85        30.3274    0.6081   -1.1234 H         1 UNK         0.0717 
     86 H86        28.4559   -0.0304   -2.8221 H         1 UNK         0.0934 
     87 H87        27.6000    1.4792   -2.8278 H         1 UNK         0.0934 
     88 H88        28.9325    0.4965   -5.3967 H         1 UNK         0.0739 
     89 H89        26.9550   -1.0381   -4.1489 H         1 UNK         0.3093 
     90 H90        25.4667   -2.4067   -7.1093 H         1 UNK         0.0818 
     91 H91        27.4734   -3.7649   -6.5473 H         1 UNK         0.0819 
     92 H92        27.1682   -3.5614   -4.8320 H         1 UNK         0.0819 
     93 H93        26.0285   -4.4598   -5.8340 H         1 UNK         0.0819 
     94 H94        24.9600   -2.5307   -4.2458 H         1 UNK         0.3041 
     95 H95        22.4773    0.0051   -4.2158 H         1 UNK         0.0784 
     96 H96        21.1731   -1.9056   -5.0877 H         1 UNK         0.0793 
     97 H97        22.0884   -3.0335   -4.1013 H         1 UNK         0.0793 
     98 H98        21.0432   -1.8368   -3.3377 H         1 UNK         0.0793 
     99 H99        23.4624   -1.9223   -2.2902 H         1 UNK         0.3024 
    100 H100       26.1304    0.1364   -1.1052 H         1 UNK         0.1171 
    101 H101       24.9136    0.0341    1.0540 H         1 UNK         0.0786 
    102 H102       24.1358    1.1861   -0.0176 H         1 UNK         0.0786 
    103 H103       23.4176   -0.4003    0.2253 H         1 UNK         0.0786 
    104 H104       25.0589   -2.2650   -0.0524 H         1 UNK         0.2977 
    105 H105       25.5318    1.4090   -4.6260 H         1 UNK         0.3127 
    106 H106       25.6273    4.0360   -5.6744 H         1 UNK         0.0770 
    107 H107       23.2681    2.0899   -5.4640 H         1 UNK         0.0814 
    108 H108       23.1366    3.8227   -5.7313 H         1 UNK         0.0814 
    109 H109       23.7938    3.2210   -4.2179 H         1 UNK         0.0814 
    110 H110       25.0795    0.9129   -7.3190 H         1 UNK         0.2983 
    111 H111       24.3765    2.0594   -9.8702 H         1 UNK         0.0947 
    112 H112       25.3551   -0.7582   -9.1662 H         1 UNK         0.0806 
    113 H113       24.6516   -0.2658  -10.6986 H         1 UNK         0.0806 
    114 H114       23.6766   -0.2315   -9.2374 H         1 UNK         0.0806 
    115 H115       27.4368    0.6017   -8.5837 H         1 UNK         0.3000 
    116 H116       29.0720    2.4190  -10.1438 H         1 UNK         0.0850 
    117 H117       30.2572    0.5814  -11.4217 H         1 UNK         0.0810 
    118 H118       28.6097    0.8291  -11.9732 H         1 UNK         0.0810 
    119 H119       28.9959   -0.5447  -10.9393 H         1 UNK         0.0810 
    120 H120       29.9945    2.9953   -8.1950 H         1 UNK         0.3040 
    121 H121       31.0898    1.1799   -6.2807 H         1 UNK         0.0766 
    122 H122       30.4955    3.5456   -5.7468 H         1 UNK         0.0812 
    123 H123       31.7606    4.1272   -6.8289 H         1 UNK         0.0812 
    124 H124       32.1791    3.2299   -5.3750 H         1 UNK         0.0812 
    125 H125       32.3199    2.3653   -9.3161 H         1 UNK         0.3205 
    126 H126       35.1268    1.6414   -8.8418 H         1 UNK         0.0754 
    127 H127       35.3688    2.3064  -11.2361 H         1 UNK         0.0769 
    128 H128       34.5894    3.5710  -10.3005 H         1 UNK         0.0769 
    129 H129       33.6313    2.5434  -11.3656 H         1 UNK         0.0769 
    130 H130       34.3854   -0.5377   -8.0759 H         1 UNK         0.2981 
    131 H131       33.2946   -2.4550   -9.8434 H         1 UNK         0.0541 
    132 H132       36.6084   -1.3031   -9.8897 H         1 UNK         0.3459 
    133 H133       37.2184   -2.6071  -10.8774 H         1 UNK         0.3459 
    134 H134       33.9542   -4.1466   -8.1481 H         1 UNK         0.0612 
    135 H135       34.9810   -2.9824   -7.3551 H         1 UNK         0.0612 
    136 H136       34.1585   -2.9469   -5.1138 H         1 UNK         0.0624 
    137 H137       34.0215   -1.2466   -5.4887 H         1 UNK         0.0624 
@<TRIPOS>BOND
     1    1    2 1    
     2    1   72 1    
     3    1   73 1    
     4    1   74 1    
     5    2    3 2    
     6    2    4 am   BACKBONE|DICT|INTERRES
     7    4    5 1    
     8    4   75 1    
     9    5    6 1    
    10    5   35 1    
    11    5   76 1    
    12    6    7 1    
    13    6   77 1    
    14    6   78 1    
    15    7    8 1    
    16    8    9 1    
    17    8   79 1    
    18    8   80 1    
    19    9   10 ar   
    20    9   14 ar   
    21   10   11 ar   
    22   10   81 1    
    23   11   12 ar   
    24   11   71 1    
    25   12   13 ar   
    26   12   82 1    
    27   13   14 ar   
    28   13   15 1    
    29   14   83 1    
    30   15   16 1    
    31   15   84 1    
    32   15   85 1    
    33   16   17 1    
    34   17   18 1    
    35   17   86 1    
    36   17   87 1    
    37   18   19 1    
    38   18   37 1    
    39   18   88 1    
    40   19   20 am   BACKBONE|DICT|INTERRES
    41   19   89 1    
    42   20   21 2    
    43   20   22 1    
    44   22   23 1    
    45   22   24 1    
    46   22   90 1    
    47   23   91 1    
    48   23   92 1    
    49   23   93 1    
    50   24   25 am   BACKBONE|DICT|INTERRES
    51   24   94 1    
    52   25   26 2    
    53   25   27 1    
    54   27   28 1    
    55   27   29 1    
    56   27   95 1    
    57   28   96 1    
    58   28   97 1    
    59   28   98 1    
    60   29   30 am   BACKBONE|DICT|INTERRES
    61   29   99 1    
    62   30   31 2    
    63   30   32 1    
    64   32   33 1    
    65   32   34 1    
    66   32  100 1    
    67   33  101 1    
    68   33  102 1    
    69   33  103 1    
    70   34   35 am   BACKBONE|DICT|INTERRES
    71   34  104 1    
    72   35   36 2    
    73   37   38 2    
    74   37   39 am   BACKBONE|DICT|INTERRES
    75   39   40 1    
    76   39  105 1    
    77   40   41 1    
    78   40   42 1    
    79   40  106 1    
    80   41  107 1    
    81   41  108 1    
    82   41  109 1    
    83   42   43 2    
    84   42   44 am   BACKBONE|DICT|INTERRES
    85   44   45 1    
    86   44  110 1    
    87   45   46 1    
    88   45   47 1    
    89   45  111 1    
    90   46  112 1    
    91   46  113 1    
    92   46  114 1    
    93   47   48 2    
    94   47   49 am   BACKBONE|DICT|INTERRES
    95   49   50 1    
    96   49  115 1    
    97   50   51 1    
    98   50   52 1    
    99   50  116 1    
   100   51  117 1    
   101   51  118 1    
   102   51  119 1    
   103   52   53 2    
   104   52   54 am   BACKBONE|DICT|INTERRES
   105   54   55 1    
   106   54  120 1    
   107   55   56 1    
   108   55   57 1    
   109   55  121 1    
   110   56  122 1    
   111   56  123 1    
   112   56  124 1    
   113   57   58 2    
   114   57   59 am   BACKBONE|DICT|INTERRES
   115   59   60 1    
   116   59  125 1    
   117   60   61 1    
   118   60   62 1    
   119   60  126 1    
   120   61  127 1    
   121   61  128 1    
   122   61  129 1    
   123   62   63 2    
   124   62   64 am   BACKBONE|DICT|INTERRES
   125   64   65 1    
   126   64  130 1    
   127   65   66 1    
   128   65   69 1    
   129   65  131 1    
   130   66   67 am   BACKBONE|DICT|INTERRES
   131   66   68 2    
   132   67  132 1    
   133   67  133 1    
   134   69   70 1    
   135   69  134 1    
   136   69  135 1    
   137   70   71 1    
   138   71  136 1    
   139   71  137 1    
@<TRIPOS>SUBSTRUCTURE
     1 UNK         1 GROUP             0       ****    0 ROOT    
