@<TRIPOS>MOLECULE
3R137
137   139    1
SMALL
USER_CHARGES


@<TRIPOS>ATOM
      1 CA         25.9760   -4.5046    2.5267 C.3       0 UNK        -0.2020 
      2 C          26.2629   -3.5252    1.3990 C.2       0 UNK         0.4855 
      3 O          25.7561   -2.4024    1.4162 O.2       0 UNK        -0.5197 
      4 N          27.0647   -3.9393    0.4099 N.am      1 UNK        -0.4892 
      5 CA         27.4665   -3.1406   -0.7556 C.3       1 UNK         0.0835 
      6 C6         28.8212   -3.6236   -1.3385 C.3       12 UNK        -0.0855 
      7 S7         30.1745   -3.4353   -0.1254 S.3       12 UNK        -0.2931 
      8 C8         31.6500   -3.2966   -1.1939 C.3       12 UNK         0.0378 
      9 C9         31.6305   -2.0965   -2.1380 C.ar      12 UNK        -0.0802 
     10 C10        32.0909   -2.2470   -3.4508 C.ar      12 UNK        -0.0944 
     11 C11        32.0674   -1.1725   -4.3485 C.ar      12 UNK        -0.0787 
     12 C12        31.5894    0.0644   -3.9078 C.ar      12 UNK        -0.0862 
     13 C13        31.1210    0.2342   -2.6012 C.ar      12 UNK        -0.0733 
     14 C14        31.1679   -0.8449   -1.7142 C.ar      12 UNK        -0.0832 
     15 C15        30.5618    1.5884   -2.1700 C.3       12 UNK         0.0240 
     16 S16        28.9312    1.5048   -1.3407 S.3       12 UNK        -0.2522 
     17 C17        27.8952    0.4029   -2.3714 C.3       12 UNK        -0.0967 
     18 CA         27.9936    0.5748   -3.9064 C.3       5 UNK         0.0660 
     19 N          27.5780   -0.6466   -4.5977 N.am      5 UNK        -0.4015 
     20 C          28.1340   -1.1002   -5.7287 C.2       4 UNK         0.4946 
     21 O          29.0857   -0.5594   -6.2831 O.2       4 UNK        -0.5353 
     22 CA         27.5206   -2.3554   -6.3718 C.3       4 UNK         0.0277 
     23 CB         28.2900   -3.6143   -5.9428 C.3       4 UNK        -0.1981 
     24 N          26.0971   -2.5181   -6.0691 N.am      4 UNK        -0.4209 
     25 C          25.1373   -1.7090   -6.5410 C.2       3 UNK         0.4942 
     26 O          25.3533   -0.7713   -7.3076 O.2       3 UNK        -0.5208 
     27 CA         23.7044   -1.9411   -6.0312 C.3       3 UNK         0.0250 
     28 CB         22.9628   -2.9263   -6.9482 C.3       3 UNK        -0.1990 
     29 N          23.6252   -2.4100   -4.6437 N.am      3 UNK        -0.4232 
     30 C          24.1453   -1.7874   -3.5759 C.2       2 UNK         0.4993 
     31 O          24.7914   -0.7392   -3.6487 O.2       2 UNK        -0.5286 
     32 CA         23.9385   -2.4462   -2.1971 C.3       2 UNK         0.0209 
     33 CB         23.2492   -3.8294   -2.2507 C.3       2 UNK        -0.1931 
     34 N          25.1868   -2.5429   -1.4310 N.am      2 UNK        -0.4546 
     35 C          26.3386   -3.1142   -1.8120 C.2       1 UNK         0.5154 
     36 O          26.5143   -3.6226   -2.9209 O.2       1 UNK        -0.5181 
     37 C          27.2311    1.8038   -4.4320 C.2       5 UNK         0.5014 
     38 O          27.7949    2.8982   -4.4441 O.2       5 UNK        -0.5248 
     39 N          25.9911    1.6127   -4.9081 N.am      6 UNK        -0.4434 
     40 CA         25.2332    2.6272   -5.6456 C.3       6 UNK         0.0363 
     41 CB         23.7845    2.1564   -5.8486 C.3       6 UNK        -0.1936 
     42 C          25.8966    2.9710   -6.9925 C.2       6 UNK         0.5081 
     43 O          26.0516    4.1502   -7.3097 O.2       6 UNK        -0.5248 
     44 N          26.3181    1.9394   -7.7356 N.am      7 UNK        -0.4718 
     45 CA         27.0567    2.0471   -8.9943 C.3       7 UNK         0.0273 
     46 CB         26.4480    1.0632  -10.0114 C.3       7 UNK        -0.1935 
     47 C          28.5566    1.7916   -8.7623 C.2       7 UNK         0.5018 
     48 O          29.1502    0.9650   -9.4591 O.2       7 UNK        -0.5186 
     49 N          29.1519    2.5106   -7.7972 N.am      8 UNK        -0.4240 
     50 CA         30.5394    2.3531   -7.3302 C.3       8 UNK         0.0235 
     51 CB         30.8319    3.3854   -6.2295 C.3       8 UNK        -0.2000 
     52 C          31.6265    2.4246   -8.4172 C.2       8 UNK         0.4941 
     53 O          32.6726    1.7946   -8.2607 O.2       8 UNK        -0.5273 
     54 N          31.3615    3.1715   -9.4980 N.am      9 UNK        -0.4262 
     55 CA         32.2311    3.2737  -10.6723 C.3       9 UNK         0.0264 
     56 CB         31.7584    4.4454  -11.5484 C.3       9 UNK        -0.1955 
     57 C          32.3030    1.9776  -11.5033 C.2       9 UNK         0.5031 
     58 O          33.3029    1.7704  -12.1929 O.2       9 UNK        -0.5390 
     59 N          31.2563    1.1435  -11.4372 N.am      10 UNK        -0.4204 
     60 CA         31.1677   -0.1440  -12.1272 C.3       10 UNK         0.0237 
     61 CB         29.7853   -0.2699  -12.7904 C.3       10 UNK        -0.1985 
     62 C          31.4054   -1.3125  -11.1604 C.2       10 UNK         0.4970 
     63 O          32.0852   -2.2691  -11.5332 O.2       10 UNK        -0.4914 
     64 N          30.8389   -1.2191   -9.9494 N.am      11 UNK        -0.4285 
     65 CA         30.8552   -2.2569   -8.9083 C.3       11 UNK         0.1007 
     66 C          30.0738   -3.5540   -9.2874 C.2       11 UNK         0.5703 
     67 N          29.0714   -3.4747  -10.1557 N.am      11 UNK        -0.7361 
     68 O          30.3556   -4.6401   -8.7875 O.2       11 UNK        -0.4986 
     69 C69        32.2799   -2.5025   -8.3280 C.3       12 UNK        -0.0947 
     70 S70        32.2297   -2.9265   -6.5532 S.3       12 UNK        -0.2240 
     71 C71        32.5596   -1.3023   -5.7909 C.3       12 UNK         0.0194 
     72 H72        24.9060   -4.7003    2.5903 H         1 UNK         0.0906 
     73 H73        26.4872   -5.4560    2.3812 H         1 UNK         0.0906 
     74 H74        26.3032   -4.0863    3.4782 H         1 UNK         0.0906 
     75 H75        27.4451   -4.8748    0.4414 H         1 UNK         0.3140 
     76 H76        27.6056   -2.1086   -0.4256 H         1 UNK         0.1085 
     77 H77        29.0688   -3.0542   -2.2364 H         1 UNK         0.0836 
     78 H78        28.7644   -4.6692   -1.6469 H         1 UNK         0.0836 
     79 H79        31.7501   -4.2254   -1.7580 H         1 UNK         0.0731 
     80 H80        32.5345   -3.2239   -0.5600 H         1 UNK         0.0731 
     81 H81        32.4650   -3.2082   -3.7746 H         1 UNK         0.1312 
     82 H82        31.5645    0.8976   -4.5962 H         1 UNK         0.1406 
     83 H83        30.8169   -0.7148   -0.6996 H         1 UNK         0.1631 
     84 H84        30.4760    2.2625   -3.0236 H         1 UNK         0.0717 
     85 H85        31.2728    2.0565   -1.4883 H         1 UNK         0.0717 
     86 H86        28.2128   -0.6070   -2.1152 H         1 UNK         0.0934 
     87 H87        26.8583    0.4769   -2.0369 H         1 UNK         0.0934 
     88 H88        29.0308    0.7551   -4.1716 H         1 UNK         0.0739 
     89 H89        26.7552   -1.1123   -4.2329 H         1 UNK         0.3093 
     90 H90        27.6235   -2.2480   -7.4541 H         1 UNK         0.0818 
     91 H91        29.3465   -3.5270   -6.1953 H         1 UNK         0.0819 
     92 H92        27.9119   -4.5040   -6.4463 H         1 UNK         0.0819 
     93 H93        28.2324   -3.7822   -4.8677 H         1 UNK         0.0819 
     94 H94        25.8485   -3.2400   -5.4056 H         1 UNK         0.3041 
     95 H95        23.1845   -0.9828   -6.0748 H         1 UNK         0.0784 
     96 H96        22.9877   -2.5879   -7.9852 H         1 UNK         0.0793 
     97 H97        23.4095   -3.9211   -6.9193 H         1 UNK         0.0793 
     98 H98        21.9138   -3.0197   -6.6664 H         1 UNK         0.0793 
     99 H99        23.1254   -3.2738   -4.4891 H         1 UNK         0.3024 
    100 H100       23.2862   -1.7702   -1.6418 H         1 UNK         0.1171 
    101 H101       23.1112   -4.2329   -1.2473 H         1 UNK         0.0786 
    102 H102       22.2574   -3.7664   -2.7007 H         1 UNK         0.0786 
    103 H103       23.8323   -4.5575   -2.8165 H         1 UNK         0.0786 
    104 H104       25.1548   -2.1805   -0.4822 H         1 UNK         0.2977 
    105 H105       25.5530    0.7065   -4.7767 H         1 UNK         0.3127 
    106 H106       25.2128    3.5349   -5.0386 H         1 UNK         0.0770 
    107 H107       23.7283    1.2896   -6.5063 H         1 UNK         0.0814 
    108 H108       23.1828    2.9447   -6.3028 H         1 UNK         0.0814 
    109 H109       23.3137    1.8925   -4.9014 H         1 UNK         0.0814 
    110 H110       26.1231    0.9930   -7.4163 H         1 UNK         0.2983 
    111 H111       26.9616    3.0537   -9.4069 H         1 UNK         0.0947 
    112 H112       26.9334    1.1535  -10.9840 H         1 UNK         0.0806 
    113 H113       25.3855    1.2549  -10.1609 H         1 UNK         0.0806 
    114 H114       26.5575    0.0280   -9.6852 H         1 UNK         0.0806 
    115 H115       28.5761    3.1567   -7.2749 H         1 UNK         0.3000 
    116 H116       30.6142    1.3597   -6.8887 H         1 UNK         0.0850 
    117 H117       31.8598    3.3001   -5.8734 H         1 UNK         0.0810 
    118 H118       30.1851    3.2411   -5.3660 H         1 UNK         0.0810 
    119 H119       30.6942    4.4066   -6.5867 H         1 UNK         0.0810 
    120 H120       30.4831    3.6681   -9.5322 H         1 UNK         0.3040 
    121 H121       33.2426    3.4942  -10.3240 H         1 UNK         0.0766 
    122 H122       31.7785    5.3866  -10.9986 H         1 UNK         0.0812 
    123 H123       30.7435    4.2914  -11.9173 H         1 UNK         0.0812 
    124 H124       32.4056    4.5674  -12.4182 H         1 UNK         0.0812 
    125 H125       30.4981    1.3618  -10.7974 H         1 UNK         0.3205 
    126 H126       31.9227   -0.2053  -12.9140 H         1 UNK         0.0754 
    127 H127       29.6864   -1.2241  -13.3098 H         1 UNK         0.0769 
    128 H128       29.6298    0.5174  -13.5282 H         1 UNK         0.0769 
    129 H129       28.9759   -0.2077  -12.0618 H         1 UNK         0.0769 
    130 H130       30.2571   -0.4100   -9.7395 H         1 UNK         0.2981 
    131 H131       30.2579   -1.8160   -8.1142 H         1 UNK         0.0541 
    132 H132       28.8206   -2.5927  -10.5712 H         1 UNK         0.3459 
    133 H133       28.5656   -4.3112  -10.3996 H         1 UNK         0.3459 
    134 H134       32.7953   -3.2948   -8.8734 H         1 UNK         0.0612 
    135 H135       32.9006   -1.6126   -8.4458 H         1 UNK         0.0612 
    136 H136       33.6314   -1.1046   -5.8234 H         1 UNK         0.0624 
    137 H137       32.0814   -0.5382   -6.4059 H         1 UNK         0.0624 
@<TRIPOS>BOND
     1    1    2 1    
     2    1   72 1    
     3    1   73 1    
     4    1   74 1    
     5    2    3 2    
     6    2    4 am   BACKBONE|DICT|INTERRES
     7    4    5 1    
     8    4   75 1    
     9    5    6 1    
    10    5   35 1    
    11    5   76 1    
    12    6    7 1    
    13    6   77 1    
    14    6   78 1    
    15    7    8 1    
    16    8    9 1    
    17    8   79 1    
    18    8   80 1    
    19    9   10 ar   
    20    9   14 ar   
    21   10   11 ar   
    22   10   81 1    
    23   11   12 ar   
    24   11   71 1    
    25   12   13 ar   
    26   12   82 1    
    27   13   14 ar   
    28   13   15 1    
    29   14   83 1    
    30   15   16 1    
    31   15   84 1    
    32   15   85 1    
    33   16   17 1    
    34   17   18 1    
    35   17   86 1    
    36   17   87 1    
    37   18   19 1    
    38   18   37 1    
    39   18   88 1    
    40   19   20 am   BACKBONE|DICT|INTERRES
    41   19   89 1    
    42   20   21 2    
    43   20   22 1    
    44   22   23 1    
    45   22   24 1    
    46   22   90 1    
    47   23   91 1    
    48   23   92 1    
    49   23   93 1    
    50   24   25 am   BACKBONE|DICT|INTERRES
    51   24   94 1    
    52   25   26 2    
    53   25   27 1    
    54   27   28 1    
    55   27   29 1    
    56   27   95 1    
    57   28   96 1    
    58   28   97 1    
    59   28   98 1    
    60   29   30 am   BACKBONE|DICT|INTERRES
    61   29   99 1    
    62   30   31 2    
    63   30   32 1    
    64   32   33 1    
    65   32   34 1    
    66   32  100 1    
    67   33  101 1    
    68   33  102 1    
    69   33  103 1    
    70   34   35 am   BACKBONE|DICT|INTERRES
    71   34  104 1    
    72   35   36 2    
    73   37   38 2    
    74   37   39 am   BACKBONE|DICT|INTERRES
    75   39   40 1    
    76   39  105 1    
    77   40   41 1    
    78   40   42 1    
    79   40  106 1    
    80   41  107 1    
    81   41  108 1    
    82   41  109 1    
    83   42   43 2    
    84   42   44 am   BACKBONE|DICT|INTERRES
    85   44   45 1    
    86   44  110 1    
    87   45   46 1    
    88   45   47 1    
    89   45  111 1    
    90   46  112 1    
    91   46  113 1    
    92   46  114 1    
    93   47   48 2    
    94   47   49 am   BACKBONE|DICT|INTERRES
    95   49   50 1    
    96   49  115 1    
    97   50   51 1    
    98   50   52 1    
    99   50  116 1    
   100   51  117 1    
   101   51  118 1    
   102   51  119 1    
   103   52   53 2    
   104   52   54 am   BACKBONE|DICT|INTERRES
   105   54   55 1    
   106   54  120 1    
   107   55   56 1    
   108   55   57 1    
   109   55  121 1    
   110   56  122 1    
   111   56  123 1    
   112   56  124 1    
   113   57   58 2    
   114   57   59 am   BACKBONE|DICT|INTERRES
   115   59   60 1    
   116   59  125 1    
   117   60   61 1    
   118   60   62 1    
   119   60  126 1    
   120   61  127 1    
   121   61  128 1    
   122   61  129 1    
   123   62   63 2    
   124   62   64 am   BACKBONE|DICT|INTERRES
   125   64   65 1    
   126   64  130 1    
   127   65   66 1    
   128   65   69 1    
   129   65  131 1    
   130   66   67 am   BACKBONE|DICT|INTERRES
   131   66   68 2    
   132   67  132 1    
   133   67  133 1    
   134   69   70 1    
   135   69  134 1    
   136   69  135 1    
   137   70   71 1    
   138   71  136 1    
   139   71  137 1    
@<TRIPOS>SUBSTRUCTURE
     1 UNK         1 GROUP             0       ****    0 ROOT    
