@<TRIPOS>MOLECULE
3R137
137   139    1
SMALL
USER_CHARGES


@<TRIPOS>ATOM
      1 CA         27.3147   -4.4443    3.3916 C.3       0 UNK        -0.2020 
      2 C          27.8195   -3.6668    2.1851 C.2       0 UNK         0.4855 
      3 O          28.4840   -2.6431    2.3507 O.2       0 UNK        -0.5197 
      4 N          27.5193   -4.1498    0.9735 N.am      1 UNK        -0.4892 
      5 CA         27.8781   -3.5074   -0.2954 C.3       1 UNK         0.0835 
      6 C6         27.7079   -4.4681   -1.4954 C.3       12 UNK        -0.0855 
      7 S7         28.7560   -5.9620   -1.3797 S.3       12 UNK        -0.2931 
      8 C8         30.4232   -5.3354   -1.7987 C.3       12 UNK         0.0378 
      9 C9         30.4515   -4.4798   -3.0601 C.ar      12 UNK        -0.0802 
     10 C10        31.0304   -3.2063   -3.0321 C.ar      12 UNK        -0.0944 
     11 C11        31.0160   -2.3882   -4.1668 C.ar      12 UNK        -0.0787 
     12 C12        30.3928   -2.8545   -5.3299 C.ar      12 UNK        -0.0862 
     13 C13        29.8199   -4.1284   -5.3759 C.ar      12 UNK        -0.0733 
     14 C14        29.8756   -4.9461   -4.2457 C.ar      12 UNK        -0.0832 
     15 C15        29.1299   -4.6156   -6.6425 C.3       12 UNK         0.0240 
     16 S16        27.3528   -4.9610   -6.4041 S.3       12 UNK        -0.2522 
     17 C17        26.6938   -3.3978   -5.7279 C.3       12 UNK        -0.0967 
     18 CA         26.4247   -2.3281   -6.8209 C.3       5 UNK         0.0660 
     19 N          25.1714   -1.6000   -6.6030 N.am      5 UNK        -0.4015 
     20 C          24.6267   -0.7428   -7.4812 C.2       4 UNK         0.4946 
     21 O          25.0969   -0.5146   -8.5950 O.2       4 UNK        -0.5353 
     22 CA         23.3613    0.0154   -7.0463 C.3       4 UNK         0.0277 
     23 CB         22.1047   -0.6823   -7.5906 C.3       4 UNK        -0.1981 
     24 N          23.2417    0.1727   -5.5955 N.am      4 UNK        -0.4209 
     25 C          24.0712    0.8936   -4.8282 C.2       3 UNK         0.4942 
     26 O          25.0165    1.5466   -5.2771 O.2       3 UNK        -0.5208 
     27 CA         23.7980    0.8806   -3.3088 C.3       3 UNK         0.0250 
     28 CB         22.8533   -0.2564   -2.8530 C.3       3 UNK        -0.1990 
     29 N          25.0178    0.8542   -2.4929 N.am      3 UNK        -0.4232 
     30 C          26.0311   -0.0231   -2.5573 C.2       2 UNK         0.4993 
     31 O          26.1441   -0.8882   -3.4322 O.2       2 UNK        -0.5286 
     32 CA         27.1210    0.1018   -1.4689 C.3       2 UNK         0.0209 
     33 CB         26.6730    0.8768   -0.2061 C.3       2 UNK        -0.1931 
     34 N          27.6911   -1.2022   -1.1050 N.am      2 UNK        -0.4546 
     35 C          27.0496   -2.2257   -0.5209 C.2       1 UNK         0.5154 
     36 O          25.8618   -2.2025   -0.1847 O.2       1 UNK        -0.5181 
     37 C          27.6055   -1.3511   -6.9574 C.2       5 UNK         0.5014 
     38 O          28.3668   -1.4504   -7.9200 O.2       5 UNK        -0.5248 
     39 N          27.7044   -0.3946   -6.0210 N.am      6 UNK        -0.4434 
     40 CA         28.7094    0.6706   -6.0384 C.3       6 UNK         0.0363 
     41 CB         28.6167    1.5125   -4.7597 C.3       6 UNK        -0.1936 
     42 C          28.6216    1.5715   -7.2753 C.2       6 UNK         0.5081 
     43 O          29.6626    1.9399   -7.8182 O.2       6 UNK        -0.5248 
     44 N          27.3930    1.8824   -7.7098 N.am      7 UNK        -0.4718 
     45 CA         27.1212    2.6449   -8.9288 C.3       7 UNK         0.0273 
     46 CB         25.6383    3.0471   -8.9707 C.3       7 UNK        -0.1935 
     47 C          27.5231    1.8811  -10.2020 C.2       7 UNK         0.5018 
     48 O          28.1488    2.4714  -11.0826 O.2       7 UNK        -0.5186 
     49 N          27.1770    0.5870  -10.2683 N.am      8 UNK        -0.4240 
     50 CA         27.5030   -0.3075  -11.3814 C.3       8 UNK         0.0235 
     51 CB         26.7165   -1.6209  -11.2381 C.3       8 UNK        -0.2000 
     52 C          29.0088   -0.5886  -11.5069 C.2       8 UNK         0.4941 
     53 O          29.5431   -0.5280  -12.6150 O.2       8 UNK        -0.5273 
     54 N          29.6655   -0.8865  -10.3774 N.am      9 UNK        -0.4262 
     55 CA         31.1026   -1.1665  -10.3099 C.3       9 UNK         0.0264 
     56 CB         31.4030   -1.9297   -9.0122 C.3       9 UNK        -0.1955 
     57 C          31.9819    0.0933  -10.3922 C.2       9 UNK         0.5031 
     58 O          33.1668   -0.0342  -10.7040 O.2       9 UNK        -0.5390 
     59 N          31.4018    1.2655  -10.0928 N.am      10 UNK        -0.4204 
     60 CA         32.0492    2.5742   -9.9541 C.3       10 UNK         0.0237 
     61 CB         32.6387    3.0578  -11.2969 C.3       10 UNK        -0.1985 
     62 C          33.0634    2.5814   -8.7942 C.2       10 UNK         0.4970 
     63 O          34.2190    2.9677   -8.9831 O.2       10 UNK        -0.4914 
     64 N          32.6078    2.1321   -7.6166 N.am      11 UNK        -0.4285 
     65 CA         33.3862    2.1162   -6.3678 C.3       11 UNK         0.1007 
     66 C          33.7440    3.5467   -5.8766 C.2       11 UNK         0.5703 
     67 N          34.9147    3.7228   -5.2789 N.am      11 UNK        -0.7361 
     68 O          32.9556    4.4837   -5.9930 O.2       11 UNK        -0.4986 
     69 C69        32.6647    1.3285   -5.2432 C.3       12 UNK        -0.0947 
     70 S70        32.4649   -0.4436   -5.6156 S.3       12 UNK        -0.2240 
     71 C71        31.6184   -0.9860   -4.0911 C.3       12 UNK         0.0194 
     72 H72        26.7567   -5.3339    3.0998 H         1 UNK         0.0906 
     73 H73        28.1528   -4.7588    4.0130 H         1 UNK         0.0906 
     74 H74        26.6597   -3.8162    3.9949 H         1 UNK         0.0906 
     75 H75        26.9639   -4.9895    0.8928 H         1 UNK         0.3140 
     76 H76        28.9300   -3.2200   -0.2323 H         1 UNK         0.1085 
     77 H77        26.6694   -4.7976   -1.5675 H         1 UNK         0.0836 
     78 H78        27.9110   -3.9552   -2.4369 H         1 UNK         0.0836 
     79 H79        30.8058   -4.7754   -0.9440 H         1 UNK         0.0731 
     80 H80        31.0950   -6.1842   -1.9328 H         1 UNK         0.0731 
     81 H81        31.4822   -2.8436   -2.1188 H         1 UNK         0.1312 
     82 H82        30.3444   -2.2202   -6.2017 H         1 UNK         0.1406 
     83 H83        29.4254   -5.9294   -4.2746 H         1 UNK         0.1631 
     84 H84        29.6200   -5.5292   -6.9813 H         1 UNK         0.0717 
     85 H85        29.2443   -3.8963   -7.4530 H         1 UNK         0.0717 
     86 H86        27.3348   -3.0294   -4.9239 H         1 UNK         0.0934 
     87 H87        25.7598   -3.6654   -5.2315 H         1 UNK         0.0934 
     88 H88        26.3125   -2.8315   -7.7839 H         1 UNK         0.0739 
     89 H89        24.7441   -1.6954   -5.6934 H         1 UNK         0.3093 
     90 H90        23.4141    1.0141   -7.4846 H         1 UNK         0.0818 
     91 H91        21.2039   -0.1104   -7.3674 H         1 UNK         0.0819 
     92 H92        22.1575   -0.7880   -8.6753 H         1 UNK         0.0819 
     93 H93        21.9822   -1.6821   -7.1720 H         1 UNK         0.0819 
     94 H94        22.4850   -0.3223   -5.1457 H         1 UNK         0.3041 
     95 H95        23.3059    1.8289   -3.0884 H         1 UNK         0.0784 
     96 H96        21.8639   -0.1671   -3.3031 H         1 UNK         0.0793 
     97 H97        23.2522   -1.2411   -3.1017 H         1 UNK         0.0793 
     98 H98        22.7054   -0.2304   -1.7730 H         1 UNK         0.0793 
     99 H99        25.0604    1.5552   -1.7670 H         1 UNK         0.3024 
    100 H100       27.9342    0.6731   -1.9125 H         1 UNK         0.1171 
    101 H101       27.4544    0.8716    0.5542 H         1 UNK         0.0786 
    102 H102       25.7762    0.4479    0.2430 H         1 UNK         0.0786 
    103 H103       26.4644    1.9232   -0.4316 H         1 UNK         0.0786 
    104 H104       28.6523   -1.3411   -1.3827 H         1 UNK         0.2977 
    105 H105       27.0394   -0.3934   -5.2532 H         1 UNK         0.3127 
    106 H106       29.6877    0.1922   -6.0655 H         1 UNK         0.0770 
    107 H107       27.6180    1.9260   -4.6160 H         1 UNK         0.0814 
    108 H108       29.3144    2.3505   -4.7871 H         1 UNK         0.0814 
    109 H109       28.8682    0.9151   -3.8882 H         1 UNK         0.0814 
    110 H110       26.5969    1.5469   -7.1828 H         1 UNK         0.2983 
    111 H111       27.7192    3.5583   -8.8894 H         1 UNK         0.0947 
    112 H112       25.4309    3.6733   -9.8394 H         1 UNK         0.0806 
    113 H113       25.3556    3.6167   -8.0852 H         1 UNK         0.0806 
    114 H114       24.9831    2.1784   -9.0339 H         1 UNK         0.0806 
    115 H115       26.6148    0.1911   -9.5180 H         1 UNK         0.3000 
    116 H116       27.1807    0.1804  -12.3038 H         1 UNK         0.0850 
    117 H117       26.9372   -2.3021  -12.0610 H         1 UNK         0.0810 
    118 H118       25.6414   -1.4403  -11.2454 H         1 UNK         0.0810 
    119 H119       26.9600   -2.1383  -10.3092 H         1 UNK         0.0810 
    120 H120       29.1409   -0.9688   -9.5061 H         1 UNK         0.3040 
    121 H121       31.3700   -1.8091  -11.1514 H         1 UNK         0.0766 
    122 H122       32.4617   -2.1815   -8.9369 H         1 UNK         0.0812 
    123 H123       31.1477   -1.3294   -8.1399 H         1 UNK         0.0812 
    124 H124       30.8416   -2.8619   -8.9594 H         1 UNK         0.0812 
    125 H125       30.4355    1.2405   -9.7905 H         1 UNK         0.3205 
    126 H126       31.2606    3.2749   -9.6751 H         1 UNK         0.0754 
    127 H127       33.0108    4.0794  -11.2116 H         1 UNK         0.0769 
    128 H128       31.8844    3.0518  -12.0838 H         1 UNK         0.0769 
    129 H129       33.4722    2.4367  -11.6262 H         1 UNK         0.0769 
    130 H130       31.6251    1.8889   -7.5454 H         1 UNK         0.2981 
    131 H131       34.3238    1.6016   -6.5877 H         1 UNK         0.0541 
    132 H132       35.5636    2.9593   -5.1668 H         1 UNK         0.3459 
    133 H133       35.1580    4.6403   -4.9396 H         1 UNK         0.3459 
    134 H134       31.6824    1.7611   -5.0485 H         1 UNK         0.0612 
    135 H135       33.2237    1.4006   -4.3081 H         1 UNK         0.0612 
    136 H136       32.3351   -0.9271   -3.2705 H         1 UNK         0.0624 
    137 H137       30.8201   -0.2857   -3.8526 H         1 UNK         0.0624 
@<TRIPOS>BOND
     1    1    2 1    
     2    1   72 1    
     3    1   73 1    
     4    1   74 1    
     5    2    3 2    
     6    2    4 am   BACKBONE|DICT|INTERRES
     7    4    5 1    
     8    4   75 1    
     9    5    6 1    
    10    5   35 1    
    11    5   76 1    
    12    6    7 1    
    13    6   77 1    
    14    6   78 1    
    15    7    8 1    
    16    8    9 1    
    17    8   79 1    
    18    8   80 1    
    19    9   10 ar   
    20    9   14 ar   
    21   10   11 ar   
    22   10   81 1    
    23   11   12 ar   
    24   11   71 1    
    25   12   13 ar   
    26   12   82 1    
    27   13   14 ar   
    28   13   15 1    
    29   14   83 1    
    30   15   16 1    
    31   15   84 1    
    32   15   85 1    
    33   16   17 1    
    34   17   18 1    
    35   17   86 1    
    36   17   87 1    
    37   18   19 1    
    38   18   37 1    
    39   18   88 1    
    40   19   20 am   BACKBONE|DICT|INTERRES
    41   19   89 1    
    42   20   21 2    
    43   20   22 1    
    44   22   23 1    
    45   22   24 1    
    46   22   90 1    
    47   23   91 1    
    48   23   92 1    
    49   23   93 1    
    50   24   25 am   BACKBONE|DICT|INTERRES
    51   24   94 1    
    52   25   26 2    
    53   25   27 1    
    54   27   28 1    
    55   27   29 1    
    56   27   95 1    
    57   28   96 1    
    58   28   97 1    
    59   28   98 1    
    60   29   30 am   BACKBONE|DICT|INTERRES
    61   29   99 1    
    62   30   31 2    
    63   30   32 1    
    64   32   33 1    
    65   32   34 1    
    66   32  100 1    
    67   33  101 1    
    68   33  102 1    
    69   33  103 1    
    70   34   35 am   BACKBONE|DICT|INTERRES
    71   34  104 1    
    72   35   36 2    
    73   37   38 2    
    74   37   39 am   BACKBONE|DICT|INTERRES
    75   39   40 1    
    76   39  105 1    
    77   40   41 1    
    78   40   42 1    
    79   40  106 1    
    80   41  107 1    
    81   41  108 1    
    82   41  109 1    
    83   42   43 2    
    84   42   44 am   BACKBONE|DICT|INTERRES
    85   44   45 1    
    86   44  110 1    
    87   45   46 1    
    88   45   47 1    
    89   45  111 1    
    90   46  112 1    
    91   46  113 1    
    92   46  114 1    
    93   47   48 2    
    94   47   49 am   BACKBONE|DICT|INTERRES
    95   49   50 1    
    96   49  115 1    
    97   50   51 1    
    98   50   52 1    
    99   50  116 1    
   100   51  117 1    
   101   51  118 1    
   102   51  119 1    
   103   52   53 2    
   104   52   54 am   BACKBONE|DICT|INTERRES
   105   54   55 1    
   106   54  120 1    
   107   55   56 1    
   108   55   57 1    
   109   55  121 1    
   110   56  122 1    
   111   56  123 1    
   112   56  124 1    
   113   57   58 2    
   114   57   59 am   BACKBONE|DICT|INTERRES
   115   59   60 1    
   116   59  125 1    
   117   60   61 1    
   118   60   62 1    
   119   60  126 1    
   120   61  127 1    
   121   61  128 1    
   122   61  129 1    
   123   62   63 2    
   124   62   64 am   BACKBONE|DICT|INTERRES
   125   64   65 1    
   126   64  130 1    
   127   65   66 1    
   128   65   69 1    
   129   65  131 1    
   130   66   67 am   BACKBONE|DICT|INTERRES
   131   66   68 2    
   132   67  132 1    
   133   67  133 1    
   134   69   70 1    
   135   69  134 1    
   136   69  135 1    
   137   70   71 1    
   138   71  136 1    
   139   71  137 1    
@<TRIPOS>SUBSTRUCTURE
     1 UNK         1 GROUP             0       ****    0 ROOT    
