@<TRIPOS>MOLECULE
3R137
137   139    1
SMALL
USER_CHARGES


@<TRIPOS>ATOM
      1 CA         25.7572   -6.7018   -3.3801 C.3       0 UNK        -0.2020 
      2 C          25.9781   -5.6032   -2.3520 C.2       0 UNK         0.4855 
      3 O          25.0141   -5.0948   -1.7790 O.2       0 UNK        -0.5197 
      4 N          27.2428   -5.2257   -2.1254 N.am      1 UNK        -0.4892 
      5 CA         27.6829   -4.1742   -1.2011 C.3       1 UNK         0.0835 
      6 C6         29.2279   -4.1358   -1.1439 C.3       12 UNK        -0.0855 
      7 S7         29.8810   -3.0842    0.1958 S.3       12 UNK        -0.2931 
      8 C8         31.4141   -2.4547   -0.5628 C.3       12 UNK         0.0378 
      9 C9         31.1364   -1.4839   -1.7026 C.ar      12 UNK        -0.0802 
     10 C10        31.3299   -1.8728   -3.0318 C.ar      12 UNK        -0.0944 
     11 C11        31.0793   -0.9782   -4.0758 C.ar      12 UNK        -0.0787 
     12 C12        30.6620    0.3221   -3.7822 C.ar      12 UNK        -0.0862 
     13 C13        30.4311    0.7151   -2.4584 C.ar      12 UNK        -0.0733 
     14 C14        30.6828   -0.1921   -1.4246 C.ar      12 UNK        -0.0832 
     15 C15        29.9013    2.1057   -2.1143 C.3       12 UNK         0.0240 
     16 S16        28.6320    2.7536   -3.2593 S.3       12 UNK        -0.2522 
     17 C17        27.4516    1.3657   -3.4267 C.3       12 UNK        -0.0967 
     18 CA         27.3794    0.8637   -4.8951 C.3       5 UNK         0.0660 
     19 N          27.1998   -0.5911   -4.9789 N.am      5 UNK        -0.4015 
     20 C          27.2916   -1.3299   -6.0958 C.2       4 UNK         0.4946 
     21 O          27.5806   -0.8672   -7.1987 O.2       4 UNK        -0.5353 
     22 CA         26.9080   -2.8142   -5.9792 C.3       4 UNK         0.0277 
     23 CB         28.1158   -3.6745   -5.5718 C.3       4 UNK        -0.1981 
     24 N          25.8030   -2.9968   -5.0318 N.am      4 UNK        -0.4209 
     25 C          24.5227   -2.7091   -5.3174 C.2       3 UNK         0.4942 
     26 O          24.1363   -2.3914   -6.4409 O.2       3 UNK        -0.5208 
     27 CA         23.5018   -2.7362   -4.1658 C.3       3 UNK         0.0250 
     28 CB         22.7452   -4.0732   -4.1327 C.3       3 UNK        -0.1990 
     29 N          24.1109   -2.4712   -2.8597 N.am      3 UNK        -0.4232 
     30 C          24.5081   -1.2540   -2.4550 C.2       2 UNK         0.4993 
     31 O          24.3395   -0.2286   -3.1146 O.2       2 UNK        -0.5286 
     32 CA         25.2676   -1.1642   -1.1172 C.3       2 UNK         0.0209 
     33 CB         24.2910   -0.9018    0.0398 C.3       2 UNK        -0.1931 
     34 N          26.0740   -2.3523   -0.8159 N.am      2 UNK        -0.4546 
     35 C          27.0648   -2.8138   -1.5915 C.2       1 UNK         0.5154 
     36 O          27.4258   -2.2521   -2.6272 O.2       1 UNK        -0.5181 
     37 C          26.3706    1.6832   -5.7358 C.2       5 UNK         0.5014 
     38 O          26.6140    2.8665   -5.9731 O.2       5 UNK        -0.5248 
     39 N          25.2986    1.0570   -6.2462 N.am      6 UNK        -0.4434 
     40 CA         24.4204    1.6285   -7.2739 C.3       6 UNK         0.0363 
     41 CB         23.2320    0.6858   -7.5146 C.3       6 UNK        -0.1936 
     42 C          25.1499    1.9279   -8.6020 C.2       6 UNK         0.5081 
     43 O          24.7172    2.8170   -9.3349 O.2       6 UNK        -0.5248 
     44 N          26.2558    1.2171   -8.8716 N.am      7 UNK        -0.4718 
     45 CA         27.1749    1.4725   -9.9843 C.3       7 UNK         0.0273 
     46 CB         27.6918    0.1228  -10.5107 C.3       7 UNK        -0.1935 
     47 C          28.3452    2.3960   -9.5831 C.2       7 UNK         0.5018 
     48 O          29.2750    2.5628  -10.3748 O.2       7 UNK        -0.5186 
     49 N          28.3003    2.9742   -8.3720 N.am      8 UNK        -0.4240 
     50 CA         29.3244    3.8203   -7.7546 C.3       8 UNK         0.0235 
     51 CB         29.4097    5.1874   -8.4732 C.3       8 UNK        -0.2000 
     52 C          30.6631    3.0693   -7.6338 C.2       8 UNK         0.4941 
     53 O          30.6990    2.0106   -7.0071 O.2       8 UNK        -0.5273 
     54 N          31.7287    3.6152   -8.2330 N.am      9 UNK        -0.4262 
     55 CA         33.0734    3.0376   -8.2371 C.3       9 UNK         0.0264 
     56 CB         34.0845    4.1342   -8.6120 C.3       9 UNK        -0.1955 
     57 C          33.2340    1.8192   -9.1653 C.2       9 UNK         0.5031 
     58 O          34.2304    1.1053   -9.0327 O.2       9 UNK        -0.5390 
     59 N          32.2886    1.5855  -10.0891 N.am      10 UNK        -0.4204 
     60 CA         32.3162    0.4640  -11.0327 C.3       10 UNK         0.0237 
     61 CB         31.5284    0.8383  -12.3019 C.3       10 UNK        -0.1985 
     62 C          31.8128   -0.8324  -10.3710 C.2       10 UNK         0.4970 
     63 O          30.7874   -1.3798  -10.7784 O.2       10 UNK        -0.4914 
     64 N          32.5474   -1.2909   -9.3512 N.am      11 UNK        -0.4285 
     65 CA         32.2595   -2.5030   -8.5689 C.3       11 UNK         0.1007 
     66 C          32.3947   -3.8422   -9.3521 C.2       11 UNK         0.5703 
     67 N          33.0445   -3.8770  -10.5099 N.am      11 UNK        -0.7361 
     68 O          31.8962   -4.8693   -8.8981 O.2       11 UNK        -0.4986 
     69 C69        33.0978   -2.5556   -7.2634 C.3       12 UNK        -0.0947 
     70 S70        32.8767   -1.1059   -6.1784 S.3       12 UNK        -0.2240 
     71 C71        31.2156   -1.4331   -5.5194 C.3       12 UNK         0.0194 
     72 H72        26.6664   -7.2750   -3.5607 H         1 UNK         0.0906 
     73 H73        24.9884   -7.3925   -3.0346 H         1 UNK         0.0906 
     74 H74        25.4312   -6.2726   -4.3270 H         1 UNK         0.0906 
     75 H75        27.9826   -5.6777   -2.6438 H         1 UNK         0.3140 
     76 H76        27.3177   -4.4475   -0.2086 H         1 UNK         0.1085 
     77 H77        29.6296   -3.8208   -2.1073 H         1 UNK         0.0836 
     78 H78        29.6176   -5.1411   -0.9752 H         1 UNK         0.0836 
     79 H79        32.0192   -3.2953   -0.9064 H         1 UNK         0.0731 
     80 H80        32.0042   -1.9492    0.2031 H         1 UNK         0.0731 
     81 H81        31.6642   -2.8763   -3.2567 H         1 UNK         0.1312 
     82 H82        30.4878    1.0178   -4.5905 H         1 UNK         0.1406 
     83 H83        30.5167    0.1003   -0.3965 H         1 UNK         0.1631 
     84 H84        30.7395    2.8030   -2.0925 H         1 UNK         0.0717 
     85 H85        29.4731    2.1075   -1.1107 H         1 UNK         0.0717 
     86 H86        27.7625    0.5602   -2.7603 H         1 UNK         0.0934 
     87 H87        26.4721    1.6786   -3.0594 H         1 UNK         0.0934 
     88 H88        28.3458    1.0443   -5.3691 H         1 UNK         0.0739 
     89 H89        27.0463   -1.0791   -4.1009 H         1 UNK         0.3093 
     90 H90        26.5782   -3.1515   -6.9645 H         1 UNK         0.0818 
     91 H91        28.5717   -3.3366   -4.6414 H         1 UNK         0.0819 
     92 H92        27.8357   -4.7207   -5.4497 H         1 UNK         0.0819 
     93 H93        28.8883   -3.6356   -6.3407 H         1 UNK         0.0819 
     94 H94        26.0599   -3.1840   -4.0718 H         1 UNK         0.3041 
     95 H95        22.7709   -1.9488   -4.3643 H         1 UNK         0.0784 
     96 H96        22.2311   -4.2515   -5.0782 H         1 UNK         0.0793 
     97 H97        23.4121   -4.9172   -3.9636 H         1 UNK         0.0793 
     98 H98        21.9892   -4.0816   -3.3473 H         1 UNK         0.0793 
     99 H99        24.3098   -3.2779   -2.2738 H         1 UNK         0.3024 
    100 H100       25.9493   -0.3140   -1.1893 H         1 UNK         0.1171 
    101 H101       24.8212   -0.7412    0.9787 H         1 UNK         0.0786 
    102 H102       23.6935   -0.0085   -0.1493 H         1 UNK         0.0786 
    103 H103       23.5990   -1.7330    0.1812 H         1 UNK         0.0786 
    104 H104       25.7991   -2.8919   -0.0073 H         1 UNK         0.2977 
    105 H105       25.1433    0.0890   -6.0026 H         1 UNK         0.3127 
    106 H106       24.0348    2.5750   -6.8893 H         1 UNK         0.0770 
    107 H107       23.5523   -0.2621   -7.9484 H         1 UNK         0.0814 
    108 H108       22.5162    1.1324   -8.2060 H         1 UNK         0.0814 
    109 H109       22.6980    0.4696   -6.5890 H         1 UNK         0.0814 
    110 H110       26.5566    0.5013   -8.2141 H         1 UNK         0.2983 
    111 H111       26.6400    1.9691  -10.7966 H         1 UNK         0.0947 
    112 H112       28.2964    0.2555  -11.4081 H         1 UNK         0.0806 
    113 H113       26.8708   -0.5444  -10.7726 H         1 UNK         0.0806 
    114 H114       28.3148   -0.3849   -9.7732 H         1 UNK         0.0806 
    115 H115       27.5089    2.7699   -7.7715 H         1 UNK         0.3000 
    116 H116       28.9936    4.0065   -6.7315 H         1 UNK         0.0850 
    117 H117       30.1046    5.8587   -7.9668 H         1 UNK         0.0810 
    118 H118       28.4390    5.6835   -8.4748 H         1 UNK         0.0810 
    119 H119       29.7283    5.0938   -9.5120 H         1 UNK         0.0810 
    120 H120       31.6022    4.4791   -8.7406 H         1 UNK         0.3040 
    121 H121       33.3000    2.6980   -7.2238 H         1 UNK         0.0766 
    122 H122       34.0406    4.9710   -7.9147 H         1 UNK         0.0812 
    123 H123       33.9072    4.5215   -9.6161 H         1 UNK         0.0812 
    124 H124       35.1052    3.7494   -8.5875 H         1 UNK         0.0812 
    125 H125       31.4558    2.1640  -10.1014 H         1 UNK         0.3205 
    126 H126       33.3490    0.2864  -11.3405 H         1 UNK         0.0754 
    127 H127       31.5831    0.0399  -13.0431 H         1 UNK         0.0769 
    128 H128       31.9293    1.7392  -12.7665 H         1 UNK         0.0769 
    129 H129       30.4740    1.0120  -12.0914 H         1 UNK         0.0769 
    130 H130       33.3505   -0.7438   -9.0602 H         1 UNK         0.2981 
    131 H131       31.2085   -2.4409   -8.2805 H         1 UNK         0.0541 
    132 H132       33.4586   -3.0415  -10.8897 H         1 UNK         0.3459 
    133 H133       33.1207   -4.7504  -11.0068 H         1 UNK         0.3459 
    134 H134       32.8619   -3.4504   -6.6841 H         1 UNK         0.0612 
    135 H135       34.1598   -2.6281   -7.5049 H         1 UNK         0.0612 
    136 H136       30.9892   -2.4978   -5.5844 H         1 UNK         0.0624 
    137 H137       30.4805   -0.9260   -6.1471 H         1 UNK         0.0624 
@<TRIPOS>BOND
     1    1    2 1    
     2    1   72 1    
     3    1   73 1    
     4    1   74 1    
     5    2    3 2    
     6    2    4 am   BACKBONE|DICT|INTERRES
     7    4    5 1    
     8    4   75 1    
     9    5    6 1    
    10    5   35 1    
    11    5   76 1    
    12    6    7 1    
    13    6   77 1    
    14    6   78 1    
    15    7    8 1    
    16    8    9 1    
    17    8   79 1    
    18    8   80 1    
    19    9   10 ar   
    20    9   14 ar   
    21   10   11 ar   
    22   10   81 1    
    23   11   12 ar   
    24   11   71 1    
    25   12   13 ar   
    26   12   82 1    
    27   13   14 ar   
    28   13   15 1    
    29   14   83 1    
    30   15   16 1    
    31   15   84 1    
    32   15   85 1    
    33   16   17 1    
    34   17   18 1    
    35   17   86 1    
    36   17   87 1    
    37   18   19 1    
    38   18   37 1    
    39   18   88 1    
    40   19   20 am   BACKBONE|DICT|INTERRES
    41   19   89 1    
    42   20   21 2    
    43   20   22 1    
    44   22   23 1    
    45   22   24 1    
    46   22   90 1    
    47   23   91 1    
    48   23   92 1    
    49   23   93 1    
    50   24   25 am   BACKBONE|DICT|INTERRES
    51   24   94 1    
    52   25   26 2    
    53   25   27 1    
    54   27   28 1    
    55   27   29 1    
    56   27   95 1    
    57   28   96 1    
    58   28   97 1    
    59   28   98 1    
    60   29   30 am   BACKBONE|DICT|INTERRES
    61   29   99 1    
    62   30   31 2    
    63   30   32 1    
    64   32   33 1    
    65   32   34 1    
    66   32  100 1    
    67   33  101 1    
    68   33  102 1    
    69   33  103 1    
    70   34   35 am   BACKBONE|DICT|INTERRES
    71   34  104 1    
    72   35   36 2    
    73   37   38 2    
    74   37   39 am   BACKBONE|DICT|INTERRES
    75   39   40 1    
    76   39  105 1    
    77   40   41 1    
    78   40   42 1    
    79   40  106 1    
    80   41  107 1    
    81   41  108 1    
    82   41  109 1    
    83   42   43 2    
    84   42   44 am   BACKBONE|DICT|INTERRES
    85   44   45 1    
    86   44  110 1    
    87   45   46 1    
    88   45   47 1    
    89   45  111 1    
    90   46  112 1    
    91   46  113 1    
    92   46  114 1    
    93   47   48 2    
    94   47   49 am   BACKBONE|DICT|INTERRES
    95   49   50 1    
    96   49  115 1    
    97   50   51 1    
    98   50   52 1    
    99   50  116 1    
   100   51  117 1    
   101   51  118 1    
   102   51  119 1    
   103   52   53 2    
   104   52   54 am   BACKBONE|DICT|INTERRES
   105   54   55 1    
   106   54  120 1    
   107   55   56 1    
   108   55   57 1    
   109   55  121 1    
   110   56  122 1    
   111   56  123 1    
   112   56  124 1    
   113   57   58 2    
   114   57   59 am   BACKBONE|DICT|INTERRES
   115   59   60 1    
   116   59  125 1    
   117   60   61 1    
   118   60   62 1    
   119   60  126 1    
   120   61  127 1    
   121   61  128 1    
   122   61  129 1    
   123   62   63 2    
   124   62   64 am   BACKBONE|DICT|INTERRES
   125   64   65 1    
   126   64  130 1    
   127   65   66 1    
   128   65   69 1    
   129   65  131 1    
   130   66   67 am   BACKBONE|DICT|INTERRES
   131   66   68 2    
   132   67  132 1    
   133   67  133 1    
   134   69   70 1    
   135   69  134 1    
   136   69  135 1    
   137   70   71 1    
   138   71  136 1    
   139   71  137 1    
@<TRIPOS>SUBSTRUCTURE
     1 UNK         1 GROUP             0       ****    0 ROOT    
