@<TRIPOS>MOLECULE
3R137
137   139    1
SMALL
USER_CHARGES


@<TRIPOS>ATOM
      1 CA         27.1772   -7.0429   -2.5667 C.3       0 UNK        -0.2020 
      2 C          27.0292   -5.9448   -1.5241 C.2       0 UNK         0.4855 
      3 O          26.9226   -6.2422   -0.3344 O.2       0 UNK        -0.5197 
      4 N          27.0260   -4.6837   -1.9668 N.am      1 UNK        -0.4892 
      5 CA         26.8288   -3.4910   -1.1421 C.3       1 UNK         0.0835 
      6 C6         28.0476   -2.5368   -1.2073 C.3       12 UNK        -0.0855 
      7 S7         29.4291   -3.0679   -0.1344 S.3       12 UNK        -0.2931 
      8 C8         30.4009   -4.2162   -1.1715 C.3       12 UNK         0.0378 
      9 C9         30.7072   -3.6629   -2.5558 C.ar      12 UNK        -0.0802 
     10 C10        31.4643   -2.4971   -2.7031 C.ar      12 UNK        -0.0944 
     11 C11        31.7110   -1.9546   -3.9680 C.ar      12 UNK        -0.0787 
     12 C12        31.1837   -2.6041   -5.0926 C.ar      12 UNK        -0.0862 
     13 C13        30.4297   -3.7752   -4.9629 C.ar      12 UNK        -0.0733 
     14 C14        30.2134   -4.3106   -3.6907 C.ar      12 UNK        -0.0832 
     15 C15        29.8651   -4.4519   -6.2091 C.3       12 UNK         0.0240 
     16 S16        28.1165   -4.9747   -6.0790 S.3       12 UNK        -0.2522 
     17 C17        27.2517   -3.5319   -5.3700 C.3       12 UNK        -0.0967 
     18 CA         26.8839   -2.4307   -6.3950 C.3       5 UNK         0.0660 
     19 N          25.6525   -1.7275   -6.0172 N.am      5 UNK        -0.4015 
     20 C          25.0143   -0.8500   -6.8070 C.2       4 UNK         0.4946 
     21 O          25.3721   -0.5696   -7.9506 O.2       4 UNK        -0.5353 
     22 CA         23.7969   -0.1263   -6.2125 C.3       4 UNK         0.0277 
     23 CB         22.5397   -1.0033   -6.3208 C.3       4 UNK        -0.1981 
     24 N          23.9806    0.2931   -4.8220 N.am      4 UNK        -0.4209 
     25 C          24.9429    1.0992   -4.3573 C.2       3 UNK         0.4942 
     26 O          25.8313    1.5710   -5.0654 O.2       3 UNK        -0.5208 
     27 CA         24.9401    1.4241   -2.8505 C.3       3 UNK         0.0250 
     28 CB         24.0538    2.6495   -2.5562 C.3       3 UNK        -0.1990 
     29 N          24.6077    0.2919   -1.9692 N.am      3 UNK        -0.4232 
     30 C          23.4615   -0.4004   -1.8737 C.2       2 UNK         0.4993 
     31 O          22.4503   -0.1367   -2.5271 O.2       2 UNK        -0.5286 
     32 CA         23.4535   -1.6106   -0.9172 C.3       2 UNK         0.0209 
     33 CB         22.4135   -2.6737   -1.3340 C.3       2 UNK        -0.1931 
     34 N          24.7681   -2.2433   -0.7169 N.am      2 UNK        -0.4546 
     35 C          25.5612   -2.7864   -1.6541 C.2       1 UNK         0.5154 
     36 O          25.3452   -2.7246   -2.8691 O.2       1 UNK        -0.5181 
     37 C          28.0484   -1.4420   -6.5962 C.2       5 UNK         0.5014 
     38 O          28.7509   -1.5232   -7.6039 O.2       5 UNK        -0.5248 
     39 N          28.2041   -0.5043   -5.6495 N.am      6 UNK        -0.4434 
     40 CA         29.2347    0.5333   -5.6724 C.3       6 UNK         0.0363 
     41 CB         29.2590    1.2765   -4.3279 C.3       6 UNK        -0.1936 
     42 C          29.0710    1.5090   -6.8451 C.2       6 UNK         0.5081 
     43 O          30.0697    1.8864   -7.4585 O.2       6 UNK        -0.5248 
     44 N          27.8180    1.8660   -7.1558 N.am      7 UNK        -0.4718 
     45 CA         27.4440    2.6677   -8.3196 C.3       7 UNK         0.0273 
     46 CB         25.9679    3.0811   -8.2070 C.3       7 UNK        -0.1935 
     47 C          27.7125    1.9392   -9.6469 C.2       7 UNK         0.5018 
     48 O          28.2758    2.5468  -10.5571 O.2       7 UNK        -0.5186 
     49 N          27.3295    0.6555   -9.7289 N.am      8 UNK        -0.4240 
     50 CA         27.5337   -0.2005  -10.9020 C.3       8 UNK         0.0235 
     51 CB         26.7577   -1.5165  -10.7312 C.3       8 UNK        -0.2000 
     52 C          29.0163   -0.4806  -11.1948 C.2       8 UNK         0.4941 
     53 O          29.4288   -0.3959  -12.3523 O.2       8 UNK        -0.5273 
     54 N          29.7915   -0.7940  -10.1477 N.am      9 UNK        -0.4262 
     55 CA         31.2367   -1.0242  -10.2300 C.3       9 UNK         0.0264 
     56 CB         31.6954   -1.7684   -8.9689 C.3       9 UNK        -0.1955 
     57 C          32.0557    0.2673  -10.4020 C.2       9 UNK         0.5031 
     58 O          33.2026    0.1854  -10.8442 O.2       9 UNK        -0.5390 
     59 N          31.4654    1.4154  -10.0373 N.am      10 UNK        -0.4204 
     60 CA         32.0575    2.7547   -9.9886 C.3       10 UNK         0.0237 
     61 CB         32.4452    3.2498  -11.3987 C.3       10 UNK        -0.1985 
     62 C          33.2108    2.8234   -8.9709 C.2       10 UNK         0.4970 
     63 O          34.3276    3.2087   -9.3232 O.2       10 UNK        -0.4914 
     64 N          32.9125    2.4353   -7.7231 N.am      11 UNK        -0.4285 
     65 CA         33.8589    2.4553   -6.5928 C.3       11 UNK         0.1007 
     66 C          34.3059    3.8790   -6.1448 C.2       11 UNK         0.5703 
     67 N          33.5894    4.9428   -6.4906 N.am      11 UNK        -0.7361 
     68 O          35.3251    4.0184   -5.4727 O.2       11 UNK        -0.4986 
     69 C69        33.3312    1.6579   -5.3715 C.3       12 UNK        -0.0947 
     70 S70        33.0156   -0.1026   -5.7167 S.3       12 UNK        -0.2240 
     71 C71        32.5069   -0.6481   -4.0471 C.3       12 UNK         0.0194 
     72 H72        28.0989   -7.5989   -2.3971 H         1 UNK         0.0906 
     73 H73        26.3420   -7.7396   -2.4991 H         1 UNK         0.0906 
     74 H74        27.2027   -6.6449   -3.5808 H         1 UNK         0.0906 
     75 H75        27.0253   -4.5059   -2.9605 H         1 UNK         0.3140 
     76 H76        26.6561   -3.7731   -0.1009 H         1 UNK         0.1085 
     77 H77        27.7703   -1.5414   -0.8541 H         1 UNK         0.0836 
     78 H78        28.3860   -2.3915   -2.2337 H         1 UNK         0.0836 
     79 H79        31.3403   -4.4369   -0.6630 H         1 UNK         0.0731 
     80 H80        29.8673   -5.1644   -1.2405 H         1 UNK         0.0731 
     81 H81        31.8433   -1.9973   -1.8217 H         1 UNK         0.1312 
     82 H82        31.3424   -2.1985   -6.0789 H         1 UNK         0.1406 
     83 H83        29.6371   -5.2192   -3.5854 H         1 UNK         0.1631 
     84 H84        30.4716   -5.3311   -6.4290 H         1 UNK         0.0717 
     85 H85        29.9597   -3.7997   -7.0768 H         1 UNK         0.0717 
     86 H86        27.7972   -3.1291   -4.5161 H         1 UNK         0.0934 
     87 H87        26.3326   -3.9465   -4.9540 H         1 UNK         0.0934 
     88 H88        26.6868   -2.9061   -7.3585 H         1 UNK         0.0739 
     89 H89        25.2955   -1.8978   -5.0848 H         1 UNK         0.3093 
     90 H90        23.6350    0.7776   -6.8031 H         1 UNK         0.0818 
     91 H91        21.6499   -0.4609   -6.0005 H         1 UNK         0.0819 
     92 H92        22.3714   -1.3201   -7.3512 H         1 UNK         0.0819 
     93 H93        22.6202   -1.9034   -5.7098 H         1 UNK         0.0819 
     94 H94        23.2827   -0.0134   -4.1466 H         1 UNK         0.3041 
     95 H95        25.9656    1.6985   -2.5971 H         1 UNK         0.0784 
     96 H96        24.3741    3.5102   -3.1452 H         1 UNK         0.0793 
     97 H97        23.0065    2.4656   -2.7975 H         1 UNK         0.0793 
     98 H98        24.1105    2.9367   -1.5063 H         1 UNK         0.0793 
     99 H99        25.3725   -0.0340   -1.3955 H         1 UNK         0.3024 
    100 H100       23.1484   -1.2148    0.0532 H         1 UNK         0.1171 
    101 H101       22.4005   -3.5115   -0.6369 H         1 UNK         0.0786 
    102 H102       22.6178   -3.0692   -2.3297 H         1 UNK         0.0786 
    103 H103       21.4061   -2.2557   -1.3505 H         1 UNK         0.0786 
    104 H104       25.0603   -2.3170    0.2488 H         1 UNK         0.2977 
    105 H105       27.5416   -0.4663   -4.8899 H         1 UNK         0.3127 
    106 H106       30.1917    0.0323   -5.8053 H         1 UNK         0.0770 
    107 H107       28.3229    1.8008   -4.1354 H         1 UNK         0.0814 
    108 H108       30.0550    2.0215   -4.3107 H         1 UNK         0.0814 
    109 H109       29.4376    0.5913   -3.4991 H         1 UNK         0.0814 
    110 H110       27.0645    1.5629   -6.5434 H         1 UNK         0.2983 
    111 H111       28.0539    3.5738   -8.3097 H         1 UNK         0.0947 
    112 H112       25.6722    3.7069   -9.0500 H         1 UNK         0.0806 
    113 H113       25.7857    3.6533   -7.2970 H         1 UNK         0.0806 
    114 H114       25.3050    2.2155   -8.1934 H         1 UNK         0.0806 
    115 H115       26.8268    0.2415   -8.9473 H         1 UNK         0.3000 
    116 H116       27.1220    0.3238  -11.7670 H         1 UNK         0.0850 
    117 H117       26.8936   -2.1671  -11.5961 H         1 UNK         0.0810 
    118 H118       25.6880   -1.3340  -10.6279 H         1 UNK         0.0810 
    119 H119       27.0879   -2.0685   -9.8503 H         1 UNK         0.0810 
    120 H120       29.3612   -0.9097   -9.2301 H         1 UNK         0.3040 
    121 H121       31.4371   -1.6600  -11.0949 H         1 UNK         0.0766 
    122 H122       32.7664   -1.9737   -8.9966 H         1 UNK         0.0812 
    123 H123       31.4983   -1.1742   -8.0773 H         1 UNK         0.0812 
    124 H124       31.1819   -2.7234   -8.8623 H         1 UNK         0.0812 
    125 H125       30.5396    1.3487   -9.6332 H         1 UNK         0.3205 
    126 H126       31.2757    3.4176   -9.6143 H         1 UNK         0.0754 
    127 H127       32.7824    4.2865  -11.3670 H         1 UNK         0.0769 
    128 H128       31.5948    3.2057  -12.0793 H         1 UNK         0.0769 
    129 H129       33.2531    2.6600  -11.8328 H         1 UNK         0.0769 
    130 H130       31.9602    2.1431   -7.5181 H         1 UNK         0.2981 
    131 H131       34.7665    1.9558   -6.9370 H         1 UNK         0.0541 
    132 H132       32.7492    4.8383   -7.0356 H         1 UNK         0.3459 
    133 H133       33.8920    5.8582   -6.1973 H         1 UNK         0.3459 
    134 H134       32.4088    2.1089   -5.0022 H         1 UNK         0.0612 
    135 H135       34.0472    1.7023   -4.5482 H         1 UNK         0.0612 
    136 H136       33.4060   -0.7389   -3.4358 H         1 UNK         0.0624 
    137 H137       31.9031    0.1366   -3.5908 H         1 UNK         0.0624 
@<TRIPOS>BOND
     1    1    2 1    
     2    1   72 1    
     3    1   73 1    
     4    1   74 1    
     5    2    3 2    
     6    2    4 am   BACKBONE|DICT|INTERRES
     7    4    5 1    
     8    4   75 1    
     9    5    6 1    
    10    5   35 1    
    11    5   76 1    
    12    6    7 1    
    13    6   77 1    
    14    6   78 1    
    15    7    8 1    
    16    8    9 1    
    17    8   79 1    
    18    8   80 1    
    19    9   10 ar   
    20    9   14 ar   
    21   10   11 ar   
    22   10   81 1    
    23   11   12 ar   
    24   11   71 1    
    25   12   13 ar   
    26   12   82 1    
    27   13   14 ar   
    28   13   15 1    
    29   14   83 1    
    30   15   16 1    
    31   15   84 1    
    32   15   85 1    
    33   16   17 1    
    34   17   18 1    
    35   17   86 1    
    36   17   87 1    
    37   18   19 1    
    38   18   37 1    
    39   18   88 1    
    40   19   20 am   BACKBONE|DICT|INTERRES
    41   19   89 1    
    42   20   21 2    
    43   20   22 1    
    44   22   23 1    
    45   22   24 1    
    46   22   90 1    
    47   23   91 1    
    48   23   92 1    
    49   23   93 1    
    50   24   25 am   BACKBONE|DICT|INTERRES
    51   24   94 1    
    52   25   26 2    
    53   25   27 1    
    54   27   28 1    
    55   27   29 1    
    56   27   95 1    
    57   28   96 1    
    58   28   97 1    
    59   28   98 1    
    60   29   30 am   BACKBONE|DICT|INTERRES
    61   29   99 1    
    62   30   31 2    
    63   30   32 1    
    64   32   33 1    
    65   32   34 1    
    66   32  100 1    
    67   33  101 1    
    68   33  102 1    
    69   33  103 1    
    70   34   35 am   BACKBONE|DICT|INTERRES
    71   34  104 1    
    72   35   36 2    
    73   37   38 2    
    74   37   39 am   BACKBONE|DICT|INTERRES
    75   39   40 1    
    76   39  105 1    
    77   40   41 1    
    78   40   42 1    
    79   40  106 1    
    80   41  107 1    
    81   41  108 1    
    82   41  109 1    
    83   42   43 2    
    84   42   44 am   BACKBONE|DICT|INTERRES
    85   44   45 1    
    86   44  110 1    
    87   45   46 1    
    88   45   47 1    
    89   45  111 1    
    90   46  112 1    
    91   46  113 1    
    92   46  114 1    
    93   47   48 2    
    94   47   49 am   BACKBONE|DICT|INTERRES
    95   49   50 1    
    96   49  115 1    
    97   50   51 1    
    98   50   52 1    
    99   50  116 1    
   100   51  117 1    
   101   51  118 1    
   102   51  119 1    
   103   52   53 2    
   104   52   54 am   BACKBONE|DICT|INTERRES
   105   54   55 1    
   106   54  120 1    
   107   55   56 1    
   108   55   57 1    
   109   55  121 1    
   110   56  122 1    
   111   56  123 1    
   112   56  124 1    
   113   57   58 2    
   114   57   59 am   BACKBONE|DICT|INTERRES
   115   59   60 1    
   116   59  125 1    
   117   60   61 1    
   118   60   62 1    
   119   60  126 1    
   120   61  127 1    
   121   61  128 1    
   122   61  129 1    
   123   62   63 2    
   124   62   64 am   BACKBONE|DICT|INTERRES
   125   64   65 1    
   126   64  130 1    
   127   65   66 1    
   128   65   69 1    
   129   65  131 1    
   130   66   67 am   BACKBONE|DICT|INTERRES
   131   66   68 2    
   132   67  132 1    
   133   67  133 1    
   134   69   70 1    
   135   69  134 1    
   136   69  135 1    
   137   70   71 1    
   138   71  136 1    
   139   71  137 1    
@<TRIPOS>SUBSTRUCTURE
     1 UNK         1 GROUP             0       ****    0 ROOT    
