@<TRIPOS>MOLECULE
3R137
137   139    1
SMALL
USER_CHARGES


@<TRIPOS>ATOM
      1 CA         28.2769   -5.9304    1.0991 C.3       0 UNK        -0.2020 
      2 C          27.8063   -4.6381    0.4494 C.2       0 UNK         0.4855 
      3 O          27.7033   -4.5842   -0.7743 O.2       0 UNK        -0.5197 
      4 N          27.5106   -3.6183    1.2684 N.am      1 UNK        -0.4892 
      5 CA         27.0752   -2.2406    0.9688 C.3       1 UNK         0.0835 
      6 C6         28.1990   -1.3247    0.3928 C.3       12 UNK        -0.0855 
      7 S7         28.4723   -1.3754   -1.4178 S.3       12 UNK        -0.2931 
      8 C8         30.0733   -2.2329   -1.5105 C.3       12 UNK         0.0378 
      9 C9         30.4066   -2.6885   -2.9255 C.ar      12 UNK        -0.0802 
     10 C10        31.5562   -2.2198   -3.5701 C.ar      12 UNK        -0.0944 
     11 C11        31.9196   -2.7202   -4.8245 C.ar      12 UNK        -0.0787 
     12 C12        31.1081   -3.6758   -5.4471 C.ar      12 UNK        -0.0862 
     13 C13        29.9533   -4.1494   -4.8157 C.ar      12 UNK        -0.0733 
     14 C14        29.6068   -3.6459   -3.5581 C.ar      12 UNK        -0.0832 
     15 C15        29.1327   -5.2710   -5.4442 C.3       12 UNK         0.0240 
     16 S16        28.1944   -4.7511   -6.9158 S.3       12 UNK        -0.2522 
     17 C17        26.9042   -3.6871   -6.1848 C.3       12 UNK        -0.0967 
     18 CA         26.6002   -2.4379   -7.0485 C.3       5 UNK         0.0660 
     19 N          25.4031   -1.7311   -6.5894 N.am      5 UNK        -0.4015 
     20 C          24.7628   -0.7812   -7.2894 C.2       4 UNK         0.4946 
     21 O          25.0783   -0.4422   -8.4298 O.2       4 UNK        -0.5353 
     22 CA         23.5962   -0.0534   -6.5948 C.3       4 UNK         0.0277 
     23 CB         22.2762   -0.8033   -6.8332 C.3       4 UNK        -0.1981 
     24 N          23.8005    0.1330   -5.1564 N.am      4 UNK        -0.4209 
     25 C          24.8044    0.8381   -4.6160 C.2       3 UNK         0.4942 
     26 O          25.6146    1.4849   -5.2777 O.2       3 UNK        -0.5208 
     27 CA         24.9720    0.7799   -3.0878 C.3       3 UNK         0.0250 
     28 CB         24.2935    1.9916   -2.4300 C.3       3 UNK        -0.1990 
     29 N          24.5028   -0.4506   -2.4365 N.am      3 UNK        -0.4232 
     30 C          24.8468   -1.7044   -2.7655 C.2       2 UNK         0.4993 
     31 O          25.5034   -1.9987   -3.7657 O.2       2 UNK        -0.5286 
     32 CA         24.4282   -2.8069   -1.7796 C.3       2 UNK         0.0209 
     33 CB         24.2156   -4.1593   -2.4839 C.3       2 UNK        -0.1931 
     34 N          25.4783   -2.9559   -0.7761 N.am      2 UNK        -0.4546 
     35 C          25.7314   -2.0961    0.2162 C.2       1 UNK         0.5154 
     36 O          24.9548   -1.1941    0.5378 O.2       1 UNK        -0.5181 
     37 C          27.7959   -1.4731   -7.1139 C.2       5 UNK         0.5014 
     38 O          28.4457   -1.3882   -8.1564 O.2       5 UNK        -0.5248 
     39 N          28.0241   -0.7277   -6.0222 N.am      6 UNK        -0.4434 
     40 CA         29.0782    0.2820   -5.9242 C.3       6 UNK         0.0363 
     41 CB         29.1344    0.8509   -4.4994 C.3       6 UNK        -0.1936 
     42 C          28.9308    1.4094   -6.9569 C.2       6 UNK         0.5081 
     43 O          29.9356    1.8337   -7.5242 O.2       6 UNK        -0.5248 
     44 N          27.6914    1.8498   -7.2110 N.am      7 UNK        -0.4718 
     45 CA         27.3553    2.8210   -8.2522 C.3       7 UNK         0.0273 
     46 CB         25.8881    3.2542   -8.1050 C.3       7 UNK        -0.1935 
     47 C          27.6305    2.2904   -9.6688 C.2       7 UNK         0.5018 
     48 O          28.2518    2.9986  -10.4614 O.2       7 UNK        -0.5186 
     49 N          27.1842    1.0585   -9.9583 N.am      8 UNK        -0.4240 
     50 CA         27.3661    0.3971  -11.2542 C.3       8 UNK         0.0235 
     51 CB         26.5110   -0.8790  -11.3134 C.3       8 UNK        -0.2000 
     52 C          28.8355    0.0770  -11.5717 C.2       8 UNK         0.4941 
     53 O          29.2769    0.3197  -12.6956 O.2       8 UNK        -0.5273 
     54 N          29.5658   -0.4530  -10.5820 N.am      9 UNK        -0.4262 
     55 CA         30.9812   -0.8135  -10.6986 C.3       9 UNK         0.0264 
     56 CB         31.2938   -1.9198   -9.6789 C.3       9 UNK        -0.1955 
     57 C          31.9433    0.3810  -10.5415 C.2       9 UNK         0.5031 
     58 O          33.1329    0.2179  -10.8181 O.2       9 UNK        -0.5390 
     59 N          31.4261    1.5439  -10.1147 N.am      10 UNK        -0.4204 
     60 CA         32.1384    2.7987   -9.8390 C.3       10 UNK         0.0237 
     61 CB         32.7388    3.3948  -11.1304 C.3       10 UNK        -0.1985 
     62 C          33.1635    2.6513   -8.6968 C.2       10 UNK         0.4970 
     63 O          34.3131    3.0761   -8.8300 O.2       10 UNK        -0.4914 
     64 N          32.7156    2.0429   -7.5935 N.am      11 UNK        -0.4285 
     65 CA         33.5056    1.7875   -6.3784 C.3       11 UNK         0.1007 
     66 C          33.6117    3.0119   -5.4247 C.2       11 UNK         0.5703 
     67 N          32.8638    4.0893   -5.6348 N.am      11 UNK        -0.7361 
     68 O          34.3981    2.9880   -4.4809 O.2       11 UNK        -0.4986 
     69 C69        33.0004    0.5312   -5.6190 C.3       12 UNK        -0.0947 
     70 S70        33.0088   -0.9543   -6.6759 S.3       12 UNK        -0.2240 
     71 C71        33.2308   -2.2953   -5.4717 C.3       12 UNK         0.0194 
     72 H72        27.5959   -6.7439    0.8504 H         1 UNK         0.0906 
     73 H73        29.2687   -6.1929    0.7317 H         1 UNK         0.0906 
     74 H74        28.3281   -5.8501    2.1847 H         1 UNK         0.0906 
     75 H75        27.5940   -3.7965    2.2603 H         1 UNK         0.3140 
     76 H76        26.8596   -1.8404    1.9614 H         1 UNK         0.1085 
     77 H77        27.9599   -0.2874    0.6342 H         1 UNK         0.0836 
     78 H78        29.1389   -1.5217    0.9106 H         1 UNK         0.0836 
     79 H79        30.8492   -1.5723   -1.1208 H         1 UNK         0.0731 
     80 H80        30.0571   -3.1072   -0.8591 H         1 UNK         0.0731 
     81 H81        32.1921   -1.4958   -3.0794 H         1 UNK         0.1312 
     82 H82        31.3929   -4.0768   -6.4104 H         1 UNK         0.1406 
     83 H83        28.7284   -4.0202   -3.0500 H         1 UNK         0.1631 
     84 H84        28.4423   -5.7017   -4.7170 H         1 UNK         0.0717 
     85 H85        29.8066   -6.0789   -5.7326 H         1 UNK         0.0717 
     86 H86        26.0024   -4.2915   -6.0756 H         1 UNK         0.0934 
     87 H87        27.1921   -3.3977   -5.1731 H         1 UNK         0.0934 
     88 H88        26.3986   -2.7776   -8.0671 H         1 UNK         0.0739 
     89 H89        25.1483   -1.8843   -5.6165 H         1 UNK         0.3093 
     90 H90        23.5128    0.9371   -7.0467 H         1 UNK         0.0818 
     91 H91        21.4276   -0.2538   -6.4255 H         1 UNK         0.0819 
     92 H92        22.0913   -0.9355   -7.9003 H         1 UNK         0.0819 
     93 H93        22.2856   -1.7950   -6.3790 H         1 UNK         0.0819 
     94 H94        23.1820   -0.3673   -4.5350 H         1 UNK         0.3041 
     95 H95        26.0437    0.8437   -2.8885 H         1 UNK         0.0784 
     96 H96        24.6434    2.9250   -2.8741 H         1 UNK         0.0793 
     97 H97        23.2095    1.9601   -2.5479 H         1 UNK         0.0793 
     98 H98        24.5153    2.0409   -1.3636 H         1 UNK         0.0793 
     99 H99        24.0076   -0.3218   -1.5641 H         1 UNK         0.3024 
    100 H100       23.4937   -2.5179   -1.2934 H         1 UNK         0.1171 
    101 H101       23.4598   -4.0777   -3.2660 H         1 UNK         0.0786 
    102 H102       23.8769   -4.9210   -1.7816 H         1 UNK         0.0786 
    103 H103       25.1326   -4.5221   -2.9511 H         1 UNK         0.0786 
    104 H104       26.2193   -3.6256   -0.9814 H         1 UNK         0.2977 
    105 H105       27.4299   -0.8538   -5.2144 H         1 UNK         0.3127 
    106 H106       30.0222   -0.2261   -6.1293 H         1 UNK         0.0770 
    107 H107       28.1782    1.2753   -4.1930 H         1 UNK         0.0814 
    108 H108       29.8811    1.6420   -4.4208 H         1 UNK         0.0814 
    109 H109       29.4088    0.0787   -3.7823 H         1 UNK         0.0814 
    110 H110       26.9247    1.5087   -6.6353 H         1 UNK         0.2983 
    111 H111       27.9857    3.7000   -8.1007 H         1 UNK         0.0947 
    112 H112       25.6223    3.9971   -8.8581 H         1 UNK         0.0806 
    113 H113       25.7039    3.7015   -7.1280 H         1 UNK         0.0806 
    114 H114       25.2046    2.4125   -8.2197 H         1 UNK         0.0806 
    115 H115       26.6583    0.5456   -9.2564 H         1 UNK         0.3000 
    116 H116       27.0055    1.0799  -12.0265 H         1 UNK         0.0850 
    117 H117       26.6323   -1.3890  -12.2700 H         1 UNK         0.0810 
    118 H118       25.4512   -0.6501  -11.2005 H         1 UNK         0.0810 
    119 H119       26.7847   -1.5847  -10.5278 H         1 UNK         0.0810 
    120 H120       29.1140   -0.6677   -9.6921 H         1 UNK         0.3040 
    121 H121       31.1541   -1.2257  -11.6950 H         1 UNK         0.0766 
    122 H122       32.3488   -2.1960   -9.7004 H         1 UNK         0.0812 
    123 H123       30.7165   -2.8213   -9.8841 H         1 UNK         0.0812 
    124 H124       31.0570   -1.6026   -8.6639 H         1 UNK         0.0812 
    125 H125       30.4438    1.5490   -9.8718 H         1 UNK         0.3205 
    126 H126       31.3824    3.4982   -9.4788 H         1 UNK         0.0754 
    127 H127       33.1589    4.3839  -10.9441 H         1 UNK         0.0769 
    128 H128       31.9793    3.5060  -11.9044 H         1 UNK         0.0769 
    129 H129       33.5395    2.7733  -11.5326 H         1 UNK         0.0769 
    130 H130       31.7314    1.7834   -7.5547 H         1 UNK         0.2981 
    131 H131       34.5294    1.5769   -6.6934 H         1 UNK         0.0541 
    132 H132       32.2128    4.1156   -6.4028 H         1 UNK         0.3459 
    133 H133       32.9472    4.8780   -5.0132 H         1 UNK         0.3459 
    134 H134       33.6294    0.3398   -4.7480 H         1 UNK         0.0612 
    135 H135       31.9913    0.6873   -5.2392 H         1 UNK         0.0612 
    136 H136       33.6688   -3.1495   -5.9899 H         1 UNK         0.0624 
    137 H137       33.9597   -2.0015   -4.7150 H         1 UNK         0.0624 
@<TRIPOS>BOND
     1    1    2 1    
     2    1   72 1    
     3    1   73 1    
     4    1   74 1    
     5    2    3 2    
     6    2    4 am   BACKBONE|DICT|INTERRES
     7    4    5 1    
     8    4   75 1    
     9    5    6 1    
    10    5   35 1    
    11    5   76 1    
    12    6    7 1    
    13    6   77 1    
    14    6   78 1    
    15    7    8 1    
    16    8    9 1    
    17    8   79 1    
    18    8   80 1    
    19    9   10 ar   
    20    9   14 ar   
    21   10   11 ar   
    22   10   81 1    
    23   11   12 ar   
    24   11   71 1    
    25   12   13 ar   
    26   12   82 1    
    27   13   14 ar   
    28   13   15 1    
    29   14   83 1    
    30   15   16 1    
    31   15   84 1    
    32   15   85 1    
    33   16   17 1    
    34   17   18 1    
    35   17   86 1    
    36   17   87 1    
    37   18   19 1    
    38   18   37 1    
    39   18   88 1    
    40   19   20 am   BACKBONE|DICT|INTERRES
    41   19   89 1    
    42   20   21 2    
    43   20   22 1    
    44   22   23 1    
    45   22   24 1    
    46   22   90 1    
    47   23   91 1    
    48   23   92 1    
    49   23   93 1    
    50   24   25 am   BACKBONE|DICT|INTERRES
    51   24   94 1    
    52   25   26 2    
    53   25   27 1    
    54   27   28 1    
    55   27   29 1    
    56   27   95 1    
    57   28   96 1    
    58   28   97 1    
    59   28   98 1    
    60   29   30 am   BACKBONE|DICT|INTERRES
    61   29   99 1    
    62   30   31 2    
    63   30   32 1    
    64   32   33 1    
    65   32   34 1    
    66   32  100 1    
    67   33  101 1    
    68   33  102 1    
    69   33  103 1    
    70   34   35 am   BACKBONE|DICT|INTERRES
    71   34  104 1    
    72   35   36 2    
    73   37   38 2    
    74   37   39 am   BACKBONE|DICT|INTERRES
    75   39   40 1    
    76   39  105 1    
    77   40   41 1    
    78   40   42 1    
    79   40  106 1    
    80   41  107 1    
    81   41  108 1    
    82   41  109 1    
    83   42   43 2    
    84   42   44 am   BACKBONE|DICT|INTERRES
    85   44   45 1    
    86   44  110 1    
    87   45   46 1    
    88   45   47 1    
    89   45  111 1    
    90   46  112 1    
    91   46  113 1    
    92   46  114 1    
    93   47   48 2    
    94   47   49 am   BACKBONE|DICT|INTERRES
    95   49   50 1    
    96   49  115 1    
    97   50   51 1    
    98   50   52 1    
    99   50  116 1    
   100   51  117 1    
   101   51  118 1    
   102   51  119 1    
   103   52   53 2    
   104   52   54 am   BACKBONE|DICT|INTERRES
   105   54   55 1    
   106   54  120 1    
   107   55   56 1    
   108   55   57 1    
   109   55  121 1    
   110   56  122 1    
   111   56  123 1    
   112   56  124 1    
   113   57   58 2    
   114   57   59 am   BACKBONE|DICT|INTERRES
   115   59   60 1    
   116   59  125 1    
   117   60   61 1    
   118   60   62 1    
   119   60  126 1    
   120   61  127 1    
   121   61  128 1    
   122   61  129 1    
   123   62   63 2    
   124   62   64 am   BACKBONE|DICT|INTERRES
   125   64   65 1    
   126   64  130 1    
   127   65   66 1    
   128   65   69 1    
   129   65  131 1    
   130   66   67 am   BACKBONE|DICT|INTERRES
   131   66   68 2    
   132   67  132 1    
   133   67  133 1    
   134   69   70 1    
   135   69  134 1    
   136   69  135 1    
   137   70   71 1    
   138   71  136 1    
   139   71  137 1    
@<TRIPOS>SUBSTRUCTURE
     1 UNK         1 GROUP             0       ****    0 ROOT    
