@<TRIPOS>MOLECULE
3R137
137   139    1
SMALL
USER_CHARGES


@<TRIPOS>ATOM
      1 CA         27.4432   -4.8679    0.7234 C.3       0 UNK        -0.2020 
      2 C          26.5210   -3.6722    0.9039 C.2       0 UNK         0.4855 
      3 O          25.6452   -3.6937    1.7691 O.2       0 UNK        -0.5197 
      4 N          26.6919   -2.6317    0.0793 N.am      1 UNK        -0.4892 
      5 CA         25.9196   -1.3815    0.0805 C.3       1 UNK         0.0835 
      6 C6         26.7536   -0.2034   -0.4966 C.3       12 UNK        -0.0855 
      7 S7         27.4710   -0.5222   -2.1493 S.3       12 UNK        -0.2931 
      8 C8         29.2111   -0.8655   -1.7228 C.3       12 UNK         0.0378 
      9 C9         30.0006   -1.2632   -2.9598 C.ar      12 UNK        -0.0802 
     10 C10        31.0595   -0.4739   -3.4205 C.ar      12 UNK        -0.0944 
     11 C11        31.7339   -0.8130   -4.5974 C.ar      12 UNK        -0.0787 
     12 C12        31.3521   -1.9561   -5.3057 C.ar      12 UNK        -0.0862 
     13 C13        30.3072   -2.7603   -4.8456 C.ar      12 UNK        -0.0733 
     14 C14        29.6485   -2.4175   -3.6629 C.ar      12 UNK        -0.0832 
     15 C15        29.8815   -3.9967   -5.6202 C.3       12 UNK         0.0240 
     16 S16        28.1253   -3.9224   -6.0939 S.3       12 UNK        -0.2522 
     17 C17        28.1348   -2.7501   -7.4952 C.3       12 UNK        -0.0967 
     18 CA         27.5312   -1.3435   -7.2177 C.3       5 UNK         0.0660 
     19 N          26.4266   -1.3592   -6.2475 N.am      5 UNK        -0.4015 
     20 C          25.4903   -0.4088   -6.1201 C.2       4 UNK         0.4946 
     21 O          25.5014    0.6245   -6.7901 O.2       4 UNK        -0.5353 
     22 CA         24.3946   -0.5879   -5.0497 C.3       4 UNK         0.0277 
     23 CB         23.0001   -0.2196   -5.5972 C.3       4 UNK        -0.1981 
     24 N          24.3577   -1.8933   -4.3754 N.am      4 UNK        -0.4209 
     25 C          24.1045   -3.0984   -4.9139 C.2       3 UNK         0.4942 
     26 O          23.9394   -3.2908   -6.1183 O.2       3 UNK        -0.5208 
     27 CA         24.0310   -4.3027   -3.9539 C.3       3 UNK         0.0250 
     28 CB         25.3540   -5.0853   -3.9695 C.3       3 UNK        -0.1990 
     29 N          23.7191   -3.9299   -2.5728 N.am      3 UNK        -0.4232 
     30 C          22.5367   -3.4634   -2.1451 C.2       2 UNK         0.4993 
     31 O          21.5305   -3.3953   -2.8514 O.2       2 UNK        -0.5286 
     32 CA         22.4726   -2.9642   -0.6887 C.3       2 UNK         0.0209 
     33 CB         21.8529   -4.0367    0.2217 C.3       2 UNK        -0.1931 
     34 N          23.7750   -2.5634   -0.1405 N.am      2 UNK        -0.4546 
     35 C          24.5398   -1.5612   -0.5966 C.2       1 UNK         0.5154 
     36 O          24.2049   -0.8440   -1.5407 O.2       1 UNK        -0.5181 
     37 C          28.5856   -0.2335   -6.9828 C.2       5 UNK         0.5014 
     38 O          29.4137    0.0032   -7.8678 O.2       5 UNK        -0.5248 
     39 N          28.4836    0.4948   -5.8599 N.am      6 UNK        -0.4434 
     40 CA         29.1364    1.7868   -5.6361 C.3       6 UNK         0.0363 
     41 CB         28.8652    2.2678   -4.2010 C.3       6 UNK        -0.1936 
     42 C          28.6663    2.8645   -6.6286 C.2       6 UNK         0.5081 
     43 O          29.4937    3.6326   -7.1166 O.2       6 UNK        -0.5248 
     44 N          27.3595    2.8898   -6.9363 N.am      7 UNK        -0.4718 
     45 CA         26.7540    3.8291   -7.8879 C.3       7 UNK         0.0273 
     46 CB         25.2333    3.8807   -7.6700 C.3       7 UNK        -0.1935 
     47 C          27.0828    3.4755   -9.3469 C.2       7 UNK         0.5018 
     48 O          27.1559    4.3725  -10.1869 O.2       7 UNK        -0.5186 
     49 N          27.3163    2.1820   -9.6105 N.am      8 UNK        -0.4240 
     50 CA         27.8434    1.6690  -10.8779 C.3       8 UNK         0.0235 
     51 CB         27.5407    0.1641  -10.9773 C.3       8 UNK        -0.2000 
     52 C          29.3552    1.9229  -11.0452 C.2       8 UNK         0.4941 
     53 O          29.8656    1.7485  -12.1521 O.2       8 UNK        -0.5273 
     54 N          30.0376    2.3088   -9.9540 N.am      9 UNK        -0.4262 
     55 CA         31.4772    2.5535   -9.8293 C.3       9 UNK         0.0264 
     56 CB         31.9027    3.7814  -10.6619 C.3       9 UNK        -0.1955 
     57 C          32.3215    1.3004  -10.1247 C.2       9 UNK         0.5031 
     58 O          33.3921    1.4085  -10.7271 O.2       9 UNK        -0.5390 
     59 N          31.8427    0.1287   -9.6762 N.am      10 UNK        -0.4204 
     60 CA         32.4743   -1.1755   -9.9220 C.3       10 UNK         0.0237 
     61 CB         31.5266   -2.2912   -9.4608 C.3       10 UNK        -0.1985 
     62 C          33.8693   -1.3428   -9.2865 C.2       10 UNK         0.4970 
     63 O          34.6332   -2.1998   -9.7321 O.2       10 UNK        -0.4914 
     64 N          34.1807   -0.5150   -8.2823 N.am      11 UNK        -0.4285 
     65 CA         35.5109   -0.3847   -7.6698 C.3       11 UNK         0.1007 
     66 C          36.5423    0.3805   -8.5524 C.2       11 UNK         0.5703 
     67 N          36.1512    1.0247   -9.6474 N.am      11 UNK        -0.7361 
     68 O          37.7305    0.3810   -8.2393 O.2       11 UNK        -0.4986 
     69 C69        35.4243    0.2365   -6.2492 C.3       12 UNK        -0.0947 
     70 S70        34.4507   -0.7895   -5.0990 S.3       12 UNK        -0.2240 
     71 C71        32.8477    0.0701   -5.1350 C.3       12 UNK         0.0194 
     72 H72        27.9967   -5.0555    1.6430 H         1 UNK         0.0906 
     73 H73        26.8612   -5.7587    0.4886 H         1 UNK         0.0906 
     74 H74        28.1634   -4.7114   -0.0795 H         1 UNK         0.0906 
     75 H75        27.3979   -2.6817   -0.6407 H         1 UNK         0.3140 
     76 H76        25.6985   -1.1251    1.1193 H         1 UNK         0.1085 
     77 H77        26.1493    0.7041   -0.5525 H         1 UNK         0.0836 
     78 H78        27.5606    0.0379    0.1970 H         1 UNK         0.0836 
     79 H79        29.6453    0.0186   -1.2533 H         1 UNK         0.0731 
     80 H80        29.2663   -1.6691   -0.9877 H         1 UNK         0.0731 
     81 H81        31.3419    0.4184   -2.8788 H         1 UNK         0.1312 
     82 H82        31.8770   -2.2161   -6.2131 H         1 UNK         0.1406 
     83 H83        28.8321   -3.0321   -3.3090 H         1 UNK         0.1631 
     84 H84        30.0372   -4.8739   -4.9908 H         1 UNK         0.0717 
     85 H85        30.4961   -4.1432   -6.5098 H         1 UNK         0.0717 
     86 H86        29.1381   -2.6833   -7.9130 H         1 UNK         0.0934 
     87 H87        27.5450   -3.2258   -8.2804 H         1 UNK         0.0934 
     88 H88        27.0679   -1.0426   -8.1594 H         1 UNK         0.0739 
     89 H89        26.3641   -2.1858   -5.6707 H         1 UNK         0.3093 
     90 H90        24.6361    0.1325   -4.2664 H         1 UNK         0.0818 
     91 H91        22.2379   -0.2965   -4.8217 H         1 UNK         0.0819 
     92 H92        22.9805    0.8064   -5.9672 H         1 UNK         0.0819 
     93 H93        22.7057   -0.8674   -6.4234 H         1 UNK         0.0819 
     94 H94        24.4603   -1.8362   -3.3675 H         1 UNK         0.3041 
     95 H95        23.2376   -4.9607   -4.3149 H         1 UNK         0.0784 
     96 H96        26.1876   -4.4810   -3.6093 H         1 UNK         0.0793 
     97 H97        25.2944   -5.9801   -3.3497 H         1 UNK         0.0793 
     98 H98        25.6008   -5.4119   -4.9808 H         1 UNK         0.0793 
     99 H99        24.4772   -3.9682   -1.9080 H         1 UNK         0.3024 
    100 H100       21.8241   -2.0851   -0.6811 H         1 UNK         0.1171 
    101 H101       20.8713   -4.3413   -0.1444 H         1 UNK         0.0786 
    102 H102       21.7166   -3.6646    1.2373 H         1 UNK         0.0786 
    103 H103       22.4749   -4.9314    0.2724 H         1 UNK         0.0786 
    104 H104       24.1453   -3.1114    0.6315 H         1 UNK         0.2977 
    105 H105       27.8094    0.2049   -5.1671 H         1 UNK         0.3127 
    106 H106       30.2118    1.6501   -5.7646 H         1 UNK         0.0770 
    107 H107       27.7989    2.3965   -4.0106 H         1 UNK         0.0814 
    108 H108       29.3477    3.2281   -4.0144 H         1 UNK         0.0814 
    109 H109       29.2490    1.5708   -3.4607 H         1 UNK         0.0814 
    110 H110       26.7434    2.1760   -6.5579 H         1 UNK         0.2983 
    111 H111       27.1592    4.8245   -7.6914 H         1 UNK         0.0947 
    112 H112       24.7733    4.6265   -8.3197 H         1 UNK         0.0806 
    113 H113       24.9875    4.1503   -6.6428 H         1 UNK         0.0806 
    114 H114       24.7584    2.9238   -7.8889 H         1 UNK         0.0806 
    115 H115       27.2067    1.5209   -8.8550 H         1 UNK         0.3000 
    116 H116       27.3306    2.1778  -11.6971 H         1 UNK         0.0850 
    117 H117       27.8120   -0.2199  -11.9617 H         1 UNK         0.0810 
    118 H118       26.4804   -0.0428  -10.8313 H         1 UNK         0.0810 
    119 H119       28.1046   -0.4120  -10.2435 H         1 UNK         0.0810 
    120 H120       29.5164    2.4163   -9.0936 H         1 UNK         0.3040 
    121 H121       31.6525    2.7933   -8.7795 H         1 UNK         0.0766 
    122 H122       32.9426    4.0455  -10.4656 H         1 UNK         0.0812 
    123 H123       31.2963    4.6538  -10.4185 H         1 UNK         0.0812 
    124 H124       31.8118    3.5965  -11.7326 H         1 UNK         0.0812 
    125 H125       30.9667    0.1247   -9.1586 H         1 UNK         0.3205 
    126 H126       32.6069   -1.2722  -11.0017 H         1 UNK         0.0754 
    127 H127       31.9495   -3.2766   -9.6619 H         1 UNK         0.0769 
    128 H128       30.5688   -2.2371   -9.9789 H         1 UNK         0.0769 
    129 H129       31.3356   -2.2286   -8.3916 H         1 UNK         0.0769 
    130 H130       33.4932    0.1632   -7.9972 H         1 UNK         0.2981 
    131 H131       35.9165   -1.3922   -7.5582 H         1 UNK         0.0541 
    132 H132       35.1786    1.0424   -9.9365 H         1 UNK         0.3459 
    133 H133       36.8413    1.5064  -10.2010 H         1 UNK         0.3459 
    134 H134       35.0090    1.2452   -6.2895 H         1 UNK         0.0612 
    135 H135       36.4211    0.3374   -5.8157 H         1 UNK         0.0612 
    136 H136       32.9269    0.9956   -4.5627 H         1 UNK         0.0624 
    137 H137       32.5976    0.3579   -6.1562 H         1 UNK         0.0624 
@<TRIPOS>BOND
     1    1    2 1    
     2    1   72 1    
     3    1   73 1    
     4    1   74 1    
     5    2    3 2    
     6    2    4 am   BACKBONE|DICT|INTERRES
     7    4    5 1    
     8    4   75 1    
     9    5    6 1    
    10    5   35 1    
    11    5   76 1    
    12    6    7 1    
    13    6   77 1    
    14    6   78 1    
    15    7    8 1    
    16    8    9 1    
    17    8   79 1    
    18    8   80 1    
    19    9   10 ar   
    20    9   14 ar   
    21   10   11 ar   
    22   10   81 1    
    23   11   12 ar   
    24   11   71 1    
    25   12   13 ar   
    26   12   82 1    
    27   13   14 ar   
    28   13   15 1    
    29   14   83 1    
    30   15   16 1    
    31   15   84 1    
    32   15   85 1    
    33   16   17 1    
    34   17   18 1    
    35   17   86 1    
    36   17   87 1    
    37   18   19 1    
    38   18   37 1    
    39   18   88 1    
    40   19   20 am   BACKBONE|DICT|INTERRES
    41   19   89 1    
    42   20   21 2    
    43   20   22 1    
    44   22   23 1    
    45   22   24 1    
    46   22   90 1    
    47   23   91 1    
    48   23   92 1    
    49   23   93 1    
    50   24   25 am   BACKBONE|DICT|INTERRES
    51   24   94 1    
    52   25   26 2    
    53   25   27 1    
    54   27   28 1    
    55   27   29 1    
    56   27   95 1    
    57   28   96 1    
    58   28   97 1    
    59   28   98 1    
    60   29   30 am   BACKBONE|DICT|INTERRES
    61   29   99 1    
    62   30   31 2    
    63   30   32 1    
    64   32   33 1    
    65   32   34 1    
    66   32  100 1    
    67   33  101 1    
    68   33  102 1    
    69   33  103 1    
    70   34   35 am   BACKBONE|DICT|INTERRES
    71   34  104 1    
    72   35   36 2    
    73   37   38 2    
    74   37   39 am   BACKBONE|DICT|INTERRES
    75   39   40 1    
    76   39  105 1    
    77   40   41 1    
    78   40   42 1    
    79   40  106 1    
    80   41  107 1    
    81   41  108 1    
    82   41  109 1    
    83   42   43 2    
    84   42   44 am   BACKBONE|DICT|INTERRES
    85   44   45 1    
    86   44  110 1    
    87   45   46 1    
    88   45   47 1    
    89   45  111 1    
    90   46  112 1    
    91   46  113 1    
    92   46  114 1    
    93   47   48 2    
    94   47   49 am   BACKBONE|DICT|INTERRES
    95   49   50 1    
    96   49  115 1    
    97   50   51 1    
    98   50   52 1    
    99   50  116 1    
   100   51  117 1    
   101   51  118 1    
   102   51  119 1    
   103   52   53 2    
   104   52   54 am   BACKBONE|DICT|INTERRES
   105   54   55 1    
   106   54  120 1    
   107   55   56 1    
   108   55   57 1    
   109   55  121 1    
   110   56  122 1    
   111   56  123 1    
   112   56  124 1    
   113   57   58 2    
   114   57   59 am   BACKBONE|DICT|INTERRES
   115   59   60 1    
   116   59  125 1    
   117   60   61 1    
   118   60   62 1    
   119   60  126 1    
   120   61  127 1    
   121   61  128 1    
   122   61  129 1    
   123   62   63 2    
   124   62   64 am   BACKBONE|DICT|INTERRES
   125   64   65 1    
   126   64  130 1    
   127   65   66 1    
   128   65   69 1    
   129   65  131 1    
   130   66   67 am   BACKBONE|DICT|INTERRES
   131   66   68 2    
   132   67  132 1    
   133   67  133 1    
   134   69   70 1    
   135   69  134 1    
   136   69  135 1    
   137   70   71 1    
   138   71  136 1    
   139   71  137 1    
@<TRIPOS>SUBSTRUCTURE
     1 UNK         1 GROUP             0       ****    0 ROOT    
