@<TRIPOS>MOLECULE
3R137
137   139    1
SMALL
USER_CHARGES


@<TRIPOS>ATOM
      1 CA         23.1795   -3.9057   -1.3347 C.3       0 UNK        -0.2020 
      2 C          24.5487   -3.2965   -1.0779 C.2       0 UNK         0.4855 
      3 O          24.6424   -2.1233   -0.7161 O.2       0 UNK        -0.5197 
      4 N          25.6142   -4.0866   -1.2575 N.am      1 UNK        -0.4892 
      5 CA         27.0047   -3.6798   -1.0341 C.3       1 UNK         0.0835 
      6 C6         27.9779   -4.8857   -0.9959 C.3       12 UNK        -0.0855 
      7 S7         27.8274   -6.0339   -2.4084 S.3       12 UNK        -0.2931 
      8 C8         29.5662   -6.5012   -2.6826 C.3       12 UNK         0.0378 
      9 C9         30.3286   -5.4396   -3.4623 C.ar      12 UNK        -0.0802 
     10 C10        31.3272   -4.6755   -2.8478 C.ar      12 UNK        -0.0944 
     11 C11        32.0494   -3.7325   -3.5870 C.ar      12 UNK        -0.0787 
     12 C12        31.7686   -3.5597   -4.9443 C.ar      12 UNK        -0.0862 
     13 C13        30.7494   -4.2908   -5.5598 C.ar      12 UNK        -0.0733 
     14 C14        30.0430   -5.2394   -4.8161 C.ar      12 UNK        -0.0832 
     15 C15        30.3842   -4.0370   -7.0175 C.3       12 UNK         0.0240 
     16 S16        30.1257   -2.2677   -7.3784 S.3       12 UNK        -0.2522 
     17 C17        28.8814   -1.7859   -6.1282 C.3       12 UNK        -0.0967 
     18 CA         27.5712   -1.2733   -6.7644 C.3       5 UNK         0.0660 
     19 N          26.4487   -1.3551   -5.8247 N.am      5 UNK        -0.4015 
     20 C          25.1668   -1.1233   -6.1439 C.2       4 UNK         0.4946 
     21 O          24.7854   -0.8091   -7.2717 O.2       4 UNK        -0.5353 
     22 CA         24.1445   -1.2254   -5.0040 C.3       4 UNK         0.0277 
     23 CB         23.8056   -2.6931   -4.7017 C.3       4 UNK        -0.1981 
     24 N          24.6260   -0.5511   -3.7962 N.am      4 UNK        -0.4209 
     25 C          24.6468    0.7822   -3.6504 C.2       3 UNK         0.4942 
     26 O          24.1512    1.5668   -4.4593 O.2       3 UNK        -0.5208 
     27 CA         25.3674    1.3443   -2.4134 C.3       3 UNK         0.0250 
     28 CB         24.3989    1.4669   -1.2264 C.3       3 UNK        -0.1990 
     29 N          26.5385    0.5567   -2.0185 N.am      3 UNK        -0.4232 
     30 C          27.6563    0.4403   -2.7518 C.2       2 UNK         0.4993 
     31 O          27.8180    0.9834   -3.8419 O.2       2 UNK        -0.5286 
     32 CA         28.7700   -0.4643   -2.2000 C.3       2 UNK         0.0209 
     33 CB         29.6843    0.3424   -1.2642 C.3       2 UNK        -0.1931 
     34 N          28.2703   -1.6441   -1.4903 N.am      2 UNK        -0.4546 
     35 C          27.4586   -2.5751   -2.0114 C.2       1 UNK         0.5154 
     36 O          27.0500   -2.5556   -3.1780 O.2       1 UNK        -0.5181 
     37 C          27.7535    0.1320   -7.3755 C.2       5 UNK         0.5014 
     38 O          28.1824    0.2338   -8.5264 O.2       5 UNK        -0.5248 
     39 N          27.4227    1.1926   -6.6254 N.am      6 UNK        -0.4434 
     40 CA         27.4751    2.5943   -7.0561 C.3       6 UNK         0.0363 
     41 CB         27.1093    3.5065   -5.8750 C.3       6 UNK        -0.1936 
     42 C          26.6109    2.9293   -8.2848 C.2       6 UNK         0.5081 
     43 O          26.9103    3.9042   -8.9742 O.2       6 UNK        -0.5248 
     44 N          25.5837    2.1148   -8.5648 N.am      7 UNK        -0.4718 
     45 CA         24.7840    2.2017   -9.7889 C.3       7 UNK         0.0273 
     46 CB         23.4699    1.4302   -9.5878 C.3       7 UNK        -0.1935 
     47 C          25.5289    1.6820  -11.0348 C.2       7 UNK         0.5018 
     48 O          25.1330    2.0287  -12.1485 O.2       7 UNK        -0.5186 
     49 N          26.5695    0.8604  -10.8353 N.am      8 UNK        -0.4240 
     50 CA         27.3788    0.2554  -11.8906 C.3       8 UNK         0.0235 
     51 CB         27.5227   -1.2539  -11.6243 C.3       8 UNK        -0.2000 
     52 C          28.7565    0.9242  -11.9967 C.2       8 UNK         0.4941 
     53 O          29.1282    1.3459  -13.0930 O.2       8 UNK        -0.5273 
     54 N          29.4971    0.9951  -10.8802 N.am      9 UNK        -0.4262 
     55 CA         30.8901    1.4641  -10.8508 C.3       9 UNK         0.0264 
     56 CB         31.8196    0.3913  -11.4566 C.3       9 UNK        -0.1955 
     57 C          31.4132    1.8722   -9.4614 C.2       9 UNK         0.5031 
     58 O          32.3853    2.6280   -9.4123 O.2       9 UNK        -0.5390 
     59 N          30.8017    1.3709   -8.3763 N.am      10 UNK        -0.4204 
     60 CA         31.2409    1.4675   -6.9730 C.3       10 UNK         0.0237 
     61 CB         31.4058    2.9374   -6.5198 C.3       10 UNK        -0.1985 
     62 C          32.5037    0.6288   -6.6808 C.2       10 UNK         0.4970 
     63 O          33.0487   -0.0234   -7.5742 O.2       10 UNK        -0.4914 
     64 N          32.9352    0.6442   -5.4130 N.am      11 UNK        -0.4285 
     65 CA         34.1254   -0.0751   -4.9239 C.3       11 UNK         0.1007 
     66 C          35.4873    0.5334   -5.3723 C.2       11 UNK         0.5703 
     67 N          35.5301    1.7298   -5.9472 N.am      11 UNK        -0.7361 
     68 O          36.5269   -0.0984   -5.1993 O.2       11 UNK        -0.4986 
     69 C69        34.0916   -0.2722   -3.3838 C.3       12 UNK        -0.0947 
     70 S70        32.5999   -1.1495   -2.8111 S.3       12 UNK        -0.2240 
     71 C71        33.1306   -2.8866   -2.9350 C.3       12 UNK         0.0194 
     72 H72        23.2258   -4.6899   -2.0902 H         1 UNK         0.0906 
     73 H73        22.7829   -4.3350   -0.4151 H         1 UNK         0.0906 
     74 H74        22.4813   -3.1433   -1.6789 H         1 UNK         0.0906 
     75 H75        25.4959   -5.0286   -1.6041 H         1 UNK         0.3140 
     76 H76        27.0235   -3.2355   -0.0359 H         1 UNK         0.1085 
     77 H77        29.0092   -4.5392   -0.9062 H         1 UNK         0.0836 
     78 H78        27.7908   -5.4656   -0.0906 H         1 UNK         0.0836 
     79 H79        29.5915   -7.4369   -3.2430 H         1 UNK         0.0731 
     80 H80        30.0471   -6.7096   -1.7254 H         1 UNK         0.0731 
     81 H81        31.5467   -4.8185   -1.7985 H         1 UNK         0.1312 
     82 H82        32.3184   -2.8233   -5.5145 H         1 UNK         0.1406 
     83 H83        29.2571   -5.8175   -5.2837 H         1 UNK         0.1631 
     84 H84        29.4795   -4.5813   -7.2927 H         1 UNK         0.0717 
     85 H85        31.1830   -4.4160   -7.6560 H         1 UNK         0.0717 
     86 H86        28.6614   -2.6478   -5.4971 H         1 UNK         0.0934 
     87 H87        29.3183   -1.0417   -5.4604 H         1 UNK         0.0934 
     88 H88        27.3152   -1.9411   -7.5901 H         1 UNK         0.0739 
     89 H89        26.6684   -1.6479   -4.8762 H         1 UNK         0.3093 
     90 H90        23.2278   -0.7336   -5.3376 H         1 UNK         0.0818 
     91 H91        22.9759   -2.7646   -4.0003 H         1 UNK         0.0819 
     92 H92        23.5012   -3.2173   -5.6087 H         1 UNK         0.0819 
     93 H93        24.6549   -3.2340   -4.2829 H         1 UNK         0.0819 
     94 H94        25.0650   -1.1242   -3.0872 H         1 UNK         0.3041 
     95 H95        25.7168    2.3471   -2.6695 H         1 UNK         0.0784 
     96 H96        23.5368    2.0814   -1.4898 H         1 UNK         0.0793 
     97 H97        24.0200    0.4947   -0.9097 H         1 UNK         0.0793 
     98 H98        24.8796    1.9364   -0.3681 H         1 UNK         0.0793 
     99 H99        26.4746    0.0479   -1.1480 H         1 UNK         0.3024 
    100 H100       29.3639   -0.8177   -3.0455 H         1 UNK         0.1171 
    101 H101       29.1367    0.7516   -0.4142 H         1 UNK         0.0786 
    102 H102       30.4965   -0.2698   -0.8726 H         1 UNK         0.0786 
    103 H103       30.1392    1.1806   -1.7941 H         1 UNK         0.0786 
    104 H104       28.5593   -1.7362   -0.5269 H         1 UNK         0.2977 
    105 H105       27.2056    1.0370   -5.6436 H         1 UNK         0.3127 
    106 H106       28.5048    2.8047   -7.3418 H         1 UNK         0.0770 
    107 H107       26.1095    3.2915   -5.4962 H         1 UNK         0.0814 
    108 H108       27.1299    4.5571   -6.1680 H         1 UNK         0.0814 
    109 H109       27.8136    3.3903   -5.0513 H         1 UNK         0.0814 
    110 H110       25.3991    1.3284   -7.9529 H         1 UNK         0.2983 
    111 H111       24.5388    3.2509   -9.9687 H         1 UNK         0.0947 
    112 H112       22.8216    1.5307  -10.4593 H         1 UNK         0.0806 
    113 H113       22.9158    1.8046   -8.7268 H         1 UNK         0.0806 
    114 H114       23.6468    0.3648   -9.4358 H         1 UNK         0.0806 
    115 H115       26.8609    0.6669   -9.8827 H         1 UNK         0.3000 
    116 H116       26.8828    0.3714  -12.8568 H         1 UNK         0.0850 
    117 H117       28.1301   -1.7295  -12.3956 H         1 UNK         0.0810 
    118 H118       26.5510   -1.7480  -11.6277 H         1 UNK         0.0810 
    119 H119       27.9962   -1.4601  -10.6636 H         1 UNK         0.0810 
    120 H120       29.0853    0.6627  -10.0112 H         1 UNK         0.3040 
    121 H121       30.9533    2.3618  -11.4698 H         1 UNK         0.0766 
    122 H122       31.7508   -0.5497  -10.9091 H         1 UNK         0.0812 
    123 H123       32.8624    0.7104  -11.4247 H         1 UNK         0.0812 
    124 H124       31.5808    0.1908  -12.5009 H         1 UNK         0.0812 
    125 H125       30.0118    0.7506   -8.5178 H         1 UNK         0.3205 
    126 H126       30.4366    1.0285   -6.3822 H         1 UNK         0.0754 
    127 H127       31.4281    3.0159   -5.4326 H         1 UNK         0.0769 
    128 H128       30.5859    3.5651   -6.8651 H         1 UNK         0.0769 
    129 H129       32.3312    3.3764   -6.8939 H         1 UNK         0.0769 
    130 H130       32.4384    1.1890   -4.7247 H         1 UNK         0.2981 
    131 H131       34.0989   -1.0703   -5.3715 H         1 UNK         0.0541 
    132 H132       34.6844    2.2524   -6.1057 H         1 UNK         0.3459 
    133 H133       36.4192    2.1067   -6.2351 H         1 UNK         0.3459 
    134 H134       34.1244    0.6957   -2.8807 H         1 UNK         0.0612 
    135 H135       34.9703   -0.8199   -3.0375 H         1 UNK         0.0612 
    136 H136       33.3734   -3.2569   -1.9379 H         1 UNK         0.0624 
    137 H137       34.0435   -2.9665   -3.5268 H         1 UNK         0.0624 
@<TRIPOS>BOND
     1    1    2 1    
     2    1   72 1    
     3    1   73 1    
     4    1   74 1    
     5    2    3 2    
     6    2    4 am   BACKBONE|DICT|INTERRES
     7    4    5 1    
     8    4   75 1    
     9    5    6 1    
    10    5   35 1    
    11    5   76 1    
    12    6    7 1    
    13    6   77 1    
    14    6   78 1    
    15    7    8 1    
    16    8    9 1    
    17    8   79 1    
    18    8   80 1    
    19    9   10 ar   
    20    9   14 ar   
    21   10   11 ar   
    22   10   81 1    
    23   11   12 ar   
    24   11   71 1    
    25   12   13 ar   
    26   12   82 1    
    27   13   14 ar   
    28   13   15 1    
    29   14   83 1    
    30   15   16 1    
    31   15   84 1    
    32   15   85 1    
    33   16   17 1    
    34   17   18 1    
    35   17   86 1    
    36   17   87 1    
    37   18   19 1    
    38   18   37 1    
    39   18   88 1    
    40   19   20 am   BACKBONE|DICT|INTERRES
    41   19   89 1    
    42   20   21 2    
    43   20   22 1    
    44   22   23 1    
    45   22   24 1    
    46   22   90 1    
    47   23   91 1    
    48   23   92 1    
    49   23   93 1    
    50   24   25 am   BACKBONE|DICT|INTERRES
    51   24   94 1    
    52   25   26 2    
    53   25   27 1    
    54   27   28 1    
    55   27   29 1    
    56   27   95 1    
    57   28   96 1    
    58   28   97 1    
    59   28   98 1    
    60   29   30 am   BACKBONE|DICT|INTERRES
    61   29   99 1    
    62   30   31 2    
    63   30   32 1    
    64   32   33 1    
    65   32   34 1    
    66   32  100 1    
    67   33  101 1    
    68   33  102 1    
    69   33  103 1    
    70   34   35 am   BACKBONE|DICT|INTERRES
    71   34  104 1    
    72   35   36 2    
    73   37   38 2    
    74   37   39 am   BACKBONE|DICT|INTERRES
    75   39   40 1    
    76   39  105 1    
    77   40   41 1    
    78   40   42 1    
    79   40  106 1    
    80   41  107 1    
    81   41  108 1    
    82   41  109 1    
    83   42   43 2    
    84   42   44 am   BACKBONE|DICT|INTERRES
    85   44   45 1    
    86   44  110 1    
    87   45   46 1    
    88   45   47 1    
    89   45  111 1    
    90   46  112 1    
    91   46  113 1    
    92   46  114 1    
    93   47   48 2    
    94   47   49 am   BACKBONE|DICT|INTERRES
    95   49   50 1    
    96   49  115 1    
    97   50   51 1    
    98   50   52 1    
    99   50  116 1    
   100   51  117 1    
   101   51  118 1    
   102   51  119 1    
   103   52   53 2    
   104   52   54 am   BACKBONE|DICT|INTERRES
   105   54   55 1    
   106   54  120 1    
   107   55   56 1    
   108   55   57 1    
   109   55  121 1    
   110   56  122 1    
   111   56  123 1    
   112   56  124 1    
   113   57   58 2    
   114   57   59 am   BACKBONE|DICT|INTERRES
   115   59   60 1    
   116   59  125 1    
   117   60   61 1    
   118   60   62 1    
   119   60  126 1    
   120   61  127 1    
   121   61  128 1    
   122   61  129 1    
   123   62   63 2    
   124   62   64 am   BACKBONE|DICT|INTERRES
   125   64   65 1    
   126   64  130 1    
   127   65   66 1    
   128   65   69 1    
   129   65  131 1    
   130   66   67 am   BACKBONE|DICT|INTERRES
   131   66   68 2    
   132   67  132 1    
   133   67  133 1    
   134   69   70 1    
   135   69  134 1    
   136   69  135 1    
   137   70   71 1    
   138   71  136 1    
   139   71  137 1    
@<TRIPOS>SUBSTRUCTURE
     1 UNK         1 GROUP             0       ****    0 ROOT    
