@<TRIPOS>MOLECULE
3R137
137   139    1
SMALL
USER_CHARGES


@<TRIPOS>ATOM
      1 CA         24.3304   -5.8143   -5.9633 C.3       0 UNK        -0.2020 
      2 C          24.9255   -5.3511   -4.6428 C.2       0 UNK         0.4855 
      3 O          24.1774   -5.0503   -3.7120 O.2       0 UNK        -0.5197 
      4 N          26.2626   -5.2772   -4.5615 N.am      1 UNK        -0.4892 
      5 CA         27.0381   -4.8532   -3.3876 C.3       1 UNK         0.0835 
      6 C6         28.5600   -4.9025   -3.6759 C.3       12 UNK        -0.0855 
      7 S7         29.5458   -4.9395   -2.1428 S.3       12 UNK        -0.2931 
      8 C8         31.1282   -4.2243   -2.7066 C.3       12 UNK         0.0378 
      9 C9         31.0922   -2.7161   -2.9512 C.ar      12 UNK        -0.0802 
     10 C10        31.7819   -2.1786   -4.0440 C.ar      12 UNK        -0.0944 
     11 C11        31.8295   -0.7960   -4.2467 C.ar      12 UNK        -0.0787 
     12 C12        31.1790    0.0530   -3.3496 C.ar      12 UNK        -0.0862 
     13 C13        30.4669   -0.4657   -2.2643 C.ar      12 UNK        -0.0733 
     14 C14        30.4350   -1.8505   -2.0670 C.ar      12 UNK        -0.0832 
     15 C15        29.7677    0.4641   -1.2773 C.3       12 UNK         0.0240 
     16 S16        28.8092    1.7949   -2.0803 S.3       12 UNK        -0.2522 
     17 C17        27.4706    0.8641   -2.8985 C.3       12 UNK        -0.0967 
     18 CA         27.4748    0.9746   -4.4455 C.3       5 UNK         0.0660 
     19 N          26.6368   -0.0785   -5.0328 N.am      5 UNK        -0.4015 
     20 C          26.3100   -0.2551   -6.3212 C.2       4 UNK         0.4946 
     21 O          26.7426    0.4432   -7.2383 O.2       4 UNK        -0.5353 
     22 CA         25.3113   -1.3803   -6.6446 C.3       4 UNK         0.0277 
     23 CB         26.0320   -2.6274   -7.1763 C.3       4 UNK        -0.1981 
     24 N          24.4828   -1.7576   -5.4962 N.am      4 UNK        -0.4209 
     25 C          23.4194   -1.0675   -5.0608 C.2       3 UNK         0.4942 
     26 O          23.0145   -0.0307   -5.5868 O.2       3 UNK        -0.5208 
     27 CA         22.6965   -1.6215   -3.8212 C.3       3 UNK         0.0250 
     28 CB         21.6636   -2.6852   -4.2269 C.3       3 UNK        -0.1990 
     29 N          23.6311   -2.1858   -2.8427 N.am      3 UNK        -0.4232 
     30 C          24.3771   -1.4381   -2.0147 C.2       2 UNK         0.4993 
     31 O          24.2907   -0.2125   -1.9429 O.2       2 UNK        -0.5286 
     32 CA         25.4178   -2.1603   -1.1364 C.3       2 UNK         0.0209 
     33 CB         24.8225   -2.4830    0.2433 C.3       2 UNK        -0.1931 
     34 N          25.9671   -3.3867   -1.7254 N.am      2 UNK        -0.4546 
     35 C          26.6017   -3.4565   -2.9037 C.2       1 UNK         0.5154 
     36 O          26.7911   -2.4839   -3.6334 O.2       1 UNK        -0.5181 
     37 C          27.0809    2.3949   -4.9114 C.2       5 UNK         0.5014 
     38 O          27.9633    3.2175   -5.1581 O.2       5 UNK        -0.5248 
     39 N          25.7740    2.6370   -5.0998 N.am      6 UNK        -0.4434 
     40 CA         25.2110    3.8761   -5.6483 C.3       6 UNK         0.0363 
     41 CB         23.6775    3.7982   -5.5805 C.3       6 UNK        -0.1936 
     42 C          25.6678    4.2028   -7.0858 C.2       6 UNK         0.5081 
     43 O          25.6633    5.3749   -7.4624 O.2       6 UNK        -0.5248 
     44 N          26.0658    3.1784   -7.8514 N.am      7 UNK        -0.4718 
     45 CA         26.6401    3.2850   -9.1945 C.3       7 UNK         0.0273 
     46 CB         25.8679    2.3339  -10.1271 C.3       7 UNK        -0.1935 
     47 C          28.1481    2.9603   -9.1960 C.2       7 UNK         0.5018 
     48 O          28.7205    2.7911  -10.2732 O.2       7 UNK        -0.5186 
     49 N          28.7594    2.8595   -8.0038 N.am      8 UNK        -0.4240 
     50 CA         30.1511    2.4790   -7.7308 C.3       8 UNK         0.0235 
     51 CB         31.1381    3.5188   -8.3034 C.3       8 UNK        -0.2000 
     52 C          30.5054    1.0344   -8.1400 C.2       8 UNK         0.4941 
     53 O          31.6866    0.7547   -8.3541 O.2       8 UNK        -0.5273 
     54 N          29.4934    0.1503   -8.1993 N.am      9 UNK        -0.4262 
     55 CA         29.5226   -1.2889   -8.5015 C.3       9 UNK         0.0264 
     56 CB         29.5645   -2.1047   -7.1900 C.3       9 UNK        -0.1955 
     57 C          30.5930   -1.7100   -9.5287 C.2       9 UNK         0.5031 
     58 O          30.3780   -1.5339  -10.7292 O.2       9 UNK        -0.5390 
     59 N          31.7189   -2.2399   -9.0344 N.am      10 UNK        -0.4204 
     60 CA         32.8988   -2.6175   -9.8111 C.3       10 UNK         0.0237 
     61 CB         32.9829   -4.1548   -9.8793 C.3       10 UNK        -0.1985 
     62 C          34.1827   -1.9845   -9.2379 C.2       10 UNK         0.4970 
     63 O          35.2657   -2.5288   -9.4602 O.2       10 UNK        -0.4914 
     64 N          34.0628   -0.8584   -8.5170 N.am      11 UNK        -0.4285 
     65 CA         35.2109   -0.1014   -7.9823 C.3       11 UNK         0.1007 
     66 C          35.9261    0.7816   -9.0471 C.2       11 UNK         0.5703 
     67 N          35.3450    1.0211  -10.2174 N.am      11 UNK        -0.7361 
     68 O          37.0378    1.2486   -8.8100 O.2       11 UNK        -0.4986 
     69 C69        34.8341    0.7431   -6.7347 C.3       12 UNK        -0.0947 
     70 S70        34.3560   -0.2602   -5.2861 S.3       12 UNK        -0.2240 
     71 C71        32.5512   -0.2107   -5.4491 C.3       12 UNK         0.0194 
     72 H72        23.7618   -6.7318   -5.8147 H         1 UNK         0.0906 
     73 H73        23.6542   -5.0561   -6.3572 H         1 UNK         0.0906 
     74 H74        25.0974   -6.0080   -6.7130 H         1 UNK         0.0906 
     75 H75        26.8120   -5.5303   -5.3702 H         1 UNK         0.3140 
     76 H76        26.8168   -5.5774   -2.6005 H         1 UNK         0.1085 
     77 H77        28.8717   -4.0662   -4.3062 H         1 UNK         0.0836 
     78 H78        28.8085   -5.8071   -4.2333 H         1 UNK         0.0836 
     79 H79        31.4478   -4.7539   -3.6056 H         1 UNK         0.0731 
     80 H80        31.8856   -4.4259   -1.9482 H         1 UNK         0.0731 
     81 H81        32.2988   -2.8337   -4.7320 H         1 UNK         0.1312 
     82 H82        31.2195    1.1231   -3.5006 H         1 UNK         0.1406 
     83 H83        29.9103   -2.2570   -1.2133 H         1 UNK         0.1631 
     84 H84        30.5245    0.9193   -0.6373 H         1 UNK         0.0717 
     85 H85        29.1033   -0.0965   -0.6177 H         1 UNK         0.0717 
     86 H86        27.5672   -0.1820   -2.6073 H         1 UNK         0.0934 
     87 H87        26.5160    1.1964   -2.4867 H         1 UNK         0.0934 
     88 H88        28.4891    0.7841   -4.8025 H         1 UNK         0.0739 
     89 H89        26.3571   -0.8159   -4.3921 H         1 UNK         0.3093 
     90 H90        24.6563   -1.0086   -7.4357 H         1 UNK         0.0818 
     91 H91        26.7018   -3.0579   -6.4317 H         1 UNK         0.0819 
     92 H92        25.3205   -3.3964   -7.4753 H         1 UNK         0.0819 
     93 H93        26.6249   -2.3874   -8.0581 H         1 UNK         0.0819 
     94 H94        24.7850   -2.5602   -4.9628 H         1 UNK         0.3041 
     95 H95        22.1582   -0.7942   -3.3532 H         1 UNK         0.0784 
     96 H96        20.9321   -2.2713   -4.9223 H         1 UNK         0.0793 
     97 H97        22.1292   -3.5409   -4.7165 H         1 UNK         0.0793 
     98 H98        21.1138   -3.0539   -3.3608 H         1 UNK         0.0793 
     99 H99        23.7711   -3.1917   -2.8630 H         1 UNK         0.3024 
    100 H100       26.2498   -1.4679   -0.9933 H         1 UNK         0.1171 
    101 H101       25.5755   -2.8964    0.9147 H         1 UNK         0.0786 
    102 H102       24.4276   -1.5836    0.7184 H         1 UNK         0.0786 
    103 H103       24.0037   -3.2003    0.1722 H         1 UNK         0.0786 
    104 H104       25.8174   -4.2399   -1.2058 H         1 UNK         0.2977 
    105 H105       25.1168    1.8967   -4.8958 H         1 UNK         0.3127 
    106 H106       25.5425    4.6978   -5.0099 H         1 UNK         0.0770 
    107 H107       23.2897    2.9686   -6.1738 H         1 UNK         0.0814 
    108 H108       23.2219    4.7133   -5.9618 H         1 UNK         0.0814 
    109 H109       23.3303    3.6687   -4.5553 H         1 UNK         0.0814 
    110 H110       26.0715    2.2409   -7.4574 H         1 UNK         0.2983 
    111 H111       26.5336    4.3024   -9.5766 H         1 UNK         0.0947 
    112 H112       26.2200    2.4180  -11.1560 H         1 UNK         0.0806 
    113 H113       24.8023    2.5633  -10.1323 H         1 UNK         0.0806 
    114 H114       25.9852    1.2922   -9.8252 H         1 UNK         0.0806 
    115 H115       28.2024    3.0376   -7.1741 H         1 UNK         0.3000 
    116 H116       30.2525    2.5035   -6.6448 H         1 UNK         0.0850 
    117 H117       32.1548    3.3250   -7.9589 H         1 UNK         0.0810 
    118 H118       30.8785    4.5290   -7.9874 H         1 UNK         0.0810 
    119 H119       31.1580    3.5007   -9.3933 H         1 UNK         0.0810 
    120 H120       28.5630    0.5071   -7.9997 H         1 UNK         0.3040 
    121 H121       28.5653   -1.4981   -8.9792 H         1 UNK         0.0766 
    122 H122       28.7565   -1.8210   -6.5185 H         1 UNK         0.0812 
    123 H123       30.4867   -1.9664   -6.6349 H         1 UNK         0.0812 
    124 H124       29.4576   -3.1719   -7.3888 H         1 UNK         0.0812 
    125 H125       31.8016   -2.3307   -8.0325 H         1 UNK         0.3205 
    126 H126       32.8105   -2.2374  -10.8309 H         1 UNK         0.0754 
    127 H127       33.8120   -4.4784  -10.5100 H         1 UNK         0.0769 
    128 H128       32.0736   -4.5815  -10.3030 H         1 UNK         0.0769 
    129 H129       33.1306   -4.5936   -8.8918 H         1 UNK         0.0769 
    130 H130       33.1562   -0.4016   -8.4376 H         1 UNK         0.2981 
    131 H131       35.9615   -0.8241   -7.6563 H         1 UNK         0.0541 
    132 H132       35.8224    1.5897  -10.8988 H         1 UNK         0.3459 
    133 H133       34.4267    0.6578  -10.4152 H         1 UNK         0.3459 
    134 H134       34.0418    1.4531   -6.9782 H         1 UNK         0.0612 
    135 H135       35.6847    1.3484   -6.4159 H         1 UNK         0.0612 
    136 H136       32.2320    0.8194   -5.6130 H         1 UNK         0.0624 
    137 H137       32.2830   -0.7687   -6.3415 H         1 UNK         0.0624 
@<TRIPOS>BOND
     1    1    2 1    
     2    1   72 1    
     3    1   73 1    
     4    1   74 1    
     5    2    3 2    
     6    2    4 am   BACKBONE|DICT|INTERRES
     7    4    5 1    
     8    4   75 1    
     9    5    6 1    
    10    5   35 1    
    11    5   76 1    
    12    6    7 1    
    13    6   77 1    
    14    6   78 1    
    15    7    8 1    
    16    8    9 1    
    17    8   79 1    
    18    8   80 1    
    19    9   10 ar   
    20    9   14 ar   
    21   10   11 ar   
    22   10   81 1    
    23   11   12 ar   
    24   11   71 1    
    25   12   13 ar   
    26   12   82 1    
    27   13   14 ar   
    28   13   15 1    
    29   14   83 1    
    30   15   16 1    
    31   15   84 1    
    32   15   85 1    
    33   16   17 1    
    34   17   18 1    
    35   17   86 1    
    36   17   87 1    
    37   18   19 1    
    38   18   37 1    
    39   18   88 1    
    40   19   20 am   BACKBONE|DICT|INTERRES
    41   19   89 1    
    42   20   21 2    
    43   20   22 1    
    44   22   23 1    
    45   22   24 1    
    46   22   90 1    
    47   23   91 1    
    48   23   92 1    
    49   23   93 1    
    50   24   25 am   BACKBONE|DICT|INTERRES
    51   24   94 1    
    52   25   26 2    
    53   25   27 1    
    54   27   28 1    
    55   27   29 1    
    56   27   95 1    
    57   28   96 1    
    58   28   97 1    
    59   28   98 1    
    60   29   30 am   BACKBONE|DICT|INTERRES
    61   29   99 1    
    62   30   31 2    
    63   30   32 1    
    64   32   33 1    
    65   32   34 1    
    66   32  100 1    
    67   33  101 1    
    68   33  102 1    
    69   33  103 1    
    70   34   35 am   BACKBONE|DICT|INTERRES
    71   34  104 1    
    72   35   36 2    
    73   37   38 2    
    74   37   39 am   BACKBONE|DICT|INTERRES
    75   39   40 1    
    76   39  105 1    
    77   40   41 1    
    78   40   42 1    
    79   40  106 1    
    80   41  107 1    
    81   41  108 1    
    82   41  109 1    
    83   42   43 2    
    84   42   44 am   BACKBONE|DICT|INTERRES
    85   44   45 1    
    86   44  110 1    
    87   45   46 1    
    88   45   47 1    
    89   45  111 1    
    90   46  112 1    
    91   46  113 1    
    92   46  114 1    
    93   47   48 2    
    94   47   49 am   BACKBONE|DICT|INTERRES
    95   49   50 1    
    96   49  115 1    
    97   50   51 1    
    98   50   52 1    
    99   50  116 1    
   100   51  117 1    
   101   51  118 1    
   102   51  119 1    
   103   52   53 2    
   104   52   54 am   BACKBONE|DICT|INTERRES
   105   54   55 1    
   106   54  120 1    
   107   55   56 1    
   108   55   57 1    
   109   55  121 1    
   110   56  122 1    
   111   56  123 1    
   112   56  124 1    
   113   57   58 2    
   114   57   59 am   BACKBONE|DICT|INTERRES
   115   59   60 1    
   116   59  125 1    
   117   60   61 1    
   118   60   62 1    
   119   60  126 1    
   120   61  127 1    
   121   61  128 1    
   122   61  129 1    
   123   62   63 2    
   124   62   64 am   BACKBONE|DICT|INTERRES
   125   64   65 1    
   126   64  130 1    
   127   65   66 1    
   128   65   69 1    
   129   65  131 1    
   130   66   67 am   BACKBONE|DICT|INTERRES
   131   66   68 2    
   132   67  132 1    
   133   67  133 1    
   134   69   70 1    
   135   69  134 1    
   136   69  135 1    
   137   70   71 1    
   138   71  136 1    
   139   71  137 1    
@<TRIPOS>SUBSTRUCTURE
     1 UNK         1 GROUP             0       ****    0 ROOT    
