@<TRIPOS>MOLECULE
3R137
137   139    1
SMALL
USER_CHARGES


@<TRIPOS>ATOM
      1 CA         29.4380   -0.2600   -2.1808 C.3       0 UNK        -0.2020 
      2 C          29.9547   -0.6617   -0.8014 C.2       0 UNK         0.4855 
      3 O          30.6371    0.1339   -0.1590 O.2       0 UNK        -0.5197 
      4 N          29.6704   -1.8723   -0.3006 N.am      1 UNK        -0.4892 
      5 CA         28.8217   -2.9129   -0.8975 C.3       1 UNK         0.0835 
      6 C6         28.9162   -4.2512   -0.1213 C.3       12 UNK        -0.0855 
      7 S7         30.6285   -4.8458    0.0891 S.3       12 UNK        -0.2931 
      8 C8         30.8130   -5.9781   -1.3264 C.3       12 UNK         0.0378 
      9 C9         30.8887   -5.2446   -2.6604 C.ar      12 UNK        -0.0802 
     10 C10        31.9045   -4.3130   -2.8939 C.ar      12 UNK        -0.0944 
     11 C11        32.0127   -3.6717   -4.1303 C.ar      12 UNK        -0.0787 
     12 C12        31.1009   -3.9750   -5.1440 C.ar      12 UNK        -0.0862 
     13 C13        30.0746   -4.9039   -4.9269 C.ar      12 UNK        -0.0733 
     14 C14        29.9738   -5.5299   -3.6792 C.ar      12 UNK        -0.0832 
     15 C15        29.1112   -5.3071   -6.0419 C.3       12 UNK         0.0240 
     16 S16        28.6912   -3.9656   -7.2018 S.3       12 UNK        -0.2522 
     17 C17        27.5659   -2.9563   -6.1892 C.3       12 UNK        -0.0967 
     18 CA         27.0144   -1.7569   -7.0002 C.3       5 UNK         0.0660 
     19 N          25.6196   -1.4563   -6.6664 N.am      5 UNK        -0.4015 
     20 C          24.7882   -0.7450   -7.4416 C.2       4 UNK         0.4946 
     21 O          25.1098   -0.2665   -8.5276 O.2       4 UNK        -0.5353 
     22 CA         23.3718   -0.4904   -6.9009 C.3       4 UNK         0.0277 
     23 CB         22.4558   -1.6883   -7.1979 C.3       4 UNK        -0.1981 
     24 N          23.3680   -0.2079   -5.4648 N.am      4 UNK        -0.4209 
     25 C          23.8989    0.8935   -4.9146 C.2       3 UNK         0.4942 
     26 O          24.3492    1.8339   -5.5685 O.2       3 UNK        -0.5208 
     27 CA         23.9860    0.9296   -3.3778 C.3       3 UNK         0.0250 
     28 CB         22.7334    1.5920   -2.7827 C.3       3 UNK        -0.1990 
     29 N          24.1835   -0.3907   -2.7634 N.am      3 UNK        -0.4232 
     30 C          25.2429   -1.1820   -2.9822 C.2       2 UNK         0.4993 
     31 O          26.1587   -0.9016   -3.7602 O.2       2 UNK        -0.5286 
     32 CA         25.2487   -2.5460   -2.2756 C.3       2 UNK         0.0209 
     33 CB         24.5758   -3.6086   -3.1601 C.3       2 UNK        -0.1931 
     34 N          26.6192   -2.9679   -1.9794 N.am      2 UNK        -0.4546 
     35 C          27.3487   -2.4605   -0.9786 C.2       1 UNK         0.5154 
     36 O          26.8964   -1.6822   -0.1342 O.2       1 UNK        -0.5181 
     37 C          27.9111   -0.5099   -6.8768 C.2       5 UNK         0.5014 
     38 O          28.8081   -0.3232   -7.7002 O.2       5 UNK        -0.5248 
     39 N          27.6143    0.3595   -5.8989 N.am      6 UNK        -0.4434 
     40 CA         28.2301    1.6812   -5.7455 C.3       6 UNK         0.0363 
     41 CB         27.6886    2.3695   -4.4835 C.3       6 UNK        -0.1936 
     42 C          28.0481    2.5886   -6.9764 C.2       6 UNK         0.5081 
     43 O          28.9320    3.3939   -7.2638 O.2       6 UNK        -0.5248 
     44 N          26.9309    2.4222   -7.6966 N.am      7 UNK        -0.4718 
     45 CA         26.6864    3.0548   -8.9894 C.3       7 UNK         0.0273 
     46 CB         25.1733    3.2402   -9.1970 C.3       7 UNK        -0.1935 
     47 C          27.3167    2.2470  -10.1364 C.2       7 UNK         0.5018 
     48 O          28.1279    2.7949  -10.8825 O.2       7 UNK        -0.5186 
     49 N          26.9237    0.9713  -10.2699 N.am      8 UNK        -0.4240 
     50 CA         27.2333    0.1155  -11.4204 C.3       8 UNK         0.0235 
     51 CB         26.3708   -1.1560  -11.3658 C.3       8 UNK        -0.2000 
     52 C          28.7169   -0.2529  -11.5722 C.2       8 UNK         0.4941 
     53 O          29.2261   -0.2245  -12.6934 O.2       8 UNK        -0.5273 
     54 N          29.3805   -0.5966  -10.4613 N.am      9 UNK        -0.4262 
     55 CA         30.7983   -0.9703  -10.4278 C.3       9 UNK         0.0264 
     56 CB         30.9780   -2.1763   -9.4883 C.3       9 UNK        -0.1955 
     57 C          31.6958    0.1971   -9.9849 C.2       9 UNK         0.5031 
     58 O          32.9151    0.0258   -9.9486 O.2       9 UNK        -0.5390 
     59 N          31.0892    1.3437   -9.6372 N.am      10 UNK        -0.4204 
     60 CA         31.7175    2.5557   -9.0972 C.3       10 UNK         0.0237 
     61 CB         32.6314    3.2193  -10.1504 C.3       10 UNK        -0.1985 
     62 C          32.4262    2.3203   -7.7457 C.2       10 UNK         0.4970 
     63 O          33.4281    2.9800   -7.4618 O.2       10 UNK        -0.4914 
     64 N          31.9096    1.3752   -6.9462 N.am      11 UNK        -0.4285 
     65 CA         32.4380    1.0138   -5.6245 C.3       11 UNK         0.1007 
     66 C          32.3254    2.1833   -4.6037 C.2       11 UNK         0.5703 
     67 N          33.3957    2.4929   -3.8840 N.am      11 UNK        -0.7361 
     68 O          31.2691    2.7885   -4.4394 O.2       11 UNK        -0.4986 
     69 C69        31.7729   -0.2881   -5.1046 C.3       12 UNK        -0.0947 
     70 S70        32.7118   -1.0314   -3.7253 S.3       12 UNK        -0.2240 
     71 C71        33.1362   -2.6759   -4.3722 C.3       12 UNK         0.0194 
     72 H72        28.3809   -0.0028   -2.1313 H         1 UNK         0.0906 
     73 H73        29.9771    0.6138   -2.5471 H         1 UNK         0.0906 
     74 H74        29.5710   -1.0574   -2.9106 H         1 UNK         0.0906 
     75 H75        30.0369   -2.1080    0.6102 H         1 UNK         0.3140 
     76 H76        29.1806   -3.0877   -1.9131 H         1 UNK         0.1085 
     77 H77        28.4844   -4.1425    0.8761 H         1 UNK         0.0836 
     78 H78        28.3299   -5.0278   -0.6168 H         1 UNK         0.0836 
     79 H79        31.7312   -6.5521   -1.1943 H         1 UNK         0.0731 
     80 H80        29.9979   -6.7034   -1.3180 H         1 UNK         0.0731 
     81 H81        32.6165   -4.0902   -2.1106 H         1 UNK         0.1312 
     82 H82        31.2048   -3.4970   -6.1080 H         1 UNK         0.1406 
     83 H83        29.1990   -6.2660   -3.5113 H         1 UNK         0.1631 
     84 H84        29.5712   -6.1167   -6.6096 H         1 UNK         0.0717 
     85 H85        28.1869   -5.7106   -5.6252 H         1 UNK         0.0717 
     86 H86        26.7517   -3.6128   -5.8802 H         1 UNK         0.0934 
     87 H87        28.0646   -2.6413   -5.2695 H         1 UNK         0.0934 
     88 H88        27.0123   -2.0311   -8.0576 H         1 UNK         0.0739 
     89 H89        25.3093   -1.7343   -5.7473 H         1 UNK         0.3093 
     90 H90        22.9716    0.3833   -7.4203 H         1 UNK         0.0818 
     91 H91        21.4294   -1.4883   -6.8898 H         1 UNK         0.0819 
     92 H92        22.4341   -1.9048   -8.2671 H         1 UNK         0.0819 
     93 H93        22.7893   -2.5936   -6.6892 H         1 UNK         0.0819 
     94 H94        22.9906   -0.9173   -4.8539 H         1 UNK         0.3041 
     95 H95        24.8515    1.5428   -3.1180 H         1 UNK         0.0784 
     96 H96        22.5784    2.5849   -3.2077 H         1 UNK         0.0793 
     97 H97        21.8331    1.0088   -2.9807 H         1 UNK         0.0793 
     98 H98        22.8241    1.7156   -1.7033 H         1 UNK         0.0793 
     99 H99        23.4671   -0.6988   -2.1209 H         1 UNK         0.3024 
    100 H100       24.6928   -2.4634   -1.3383 H         1 UNK         0.1171 
    101 H101       24.5556   -4.5792   -2.6638 H         1 UNK         0.0786 
    102 H102       23.5415   -3.3406   -3.3798 H         1 UNK         0.0786 
    103 H103       25.0905   -3.7329   -4.1128 H         1 UNK         0.0786 
    104 H104       27.0541   -3.5875   -2.6468 H         1 UNK         0.2977 
    105 H105       26.9191    0.0884   -5.2075 H         1 UNK         0.3127 
    106 H106       29.2993    1.5224   -5.6154 H         1 UNK         0.0770 
    107 H107       26.6401    2.6451   -4.5901 H         1 UNK         0.0814 
    108 H108       28.2449    3.2852   -4.2788 H         1 UNK         0.0814 
    109 H109       27.7803    1.7326   -3.6057 H         1 UNK         0.0814 
    110 H110       26.2456    1.7512   -7.3757 H         1 UNK         0.2983 
    111 H111       27.1423    4.0478   -8.9944 H         1 UNK         0.0947 
    112 H112       24.9669    3.7117  -10.1588 H         1 UNK         0.0806 
    113 H113       24.7466    3.8802   -8.4244 H         1 UNK         0.0806 
    114 H114       24.6339    2.2931   -9.1756 H         1 UNK         0.0806 
    115 H115       26.2585    0.5900   -9.5971 H         1 UNK         0.3000 
    116 H116       26.9479    0.6704  -12.3169 H         1 UNK         0.0850 
    117 H117       26.5517   -1.7901  -12.2349 H         1 UNK         0.0810 
    118 H118       25.3078   -0.9140  -11.3574 H         1 UNK         0.0810 
    119 H119       26.5840   -1.7511  -10.4774 H         1 UNK         0.0810 
    120 H120       28.9120   -0.5618   -9.5578 H         1 UNK         0.3040 
    121 H121       31.1309   -1.2721  -11.4231 H         1 UNK         0.0766 
    122 H122       30.3370   -3.0075   -9.7820 H         1 UNK         0.0812 
    123 H123       30.7470   -1.9245   -8.4531 H         1 UNK         0.0812 
    124 H124       32.0065   -2.5387   -9.5098 H         1 UNK         0.0812 
    125 H125       30.0819    1.3745   -9.7179 H         1 UNK         0.3205 
    126 H126       30.9056    3.2541   -8.8968 H         1 UNK         0.0754 
    127 H127       32.9777    4.1954   -9.8084 H         1 UNK         0.0769 
    128 H128       32.1024    3.3768  -11.0904 H         1 UNK         0.0769 
    129 H129       33.5157    2.6165  -10.3591 H         1 UNK         0.0769 
    130 H130       31.0731    0.8945   -7.2446 H         1 UNK         0.2981 
    131 H131       33.4980    0.8004   -5.7781 H         1 UNK         0.0541 
    132 H132       34.2617    1.9900   -3.9974 H         1 UNK         0.3459 
    133 H133       33.3331    3.2400   -3.2109 H         1 UNK         0.3459 
    134 H134       31.7013   -1.0166   -5.9133 H         1 UNK         0.0612 
    135 H135       30.7479   -0.1066   -4.7831 H         1 UNK         0.0612 
    136 H136       34.0407   -3.0225   -3.8703 H         1 UNK         0.0624 
    137 H137       33.3854   -2.6120   -5.4325 H         1 UNK         0.0624 
@<TRIPOS>BOND
     1    1    2 1    
     2    1   72 1    
     3    1   73 1    
     4    1   74 1    
     5    2    3 2    
     6    2    4 am   BACKBONE|DICT|INTERRES
     7    4    5 1    
     8    4   75 1    
     9    5    6 1    
    10    5   35 1    
    11    5   76 1    
    12    6    7 1    
    13    6   77 1    
    14    6   78 1    
    15    7    8 1    
    16    8    9 1    
    17    8   79 1    
    18    8   80 1    
    19    9   10 ar   
    20    9   14 ar   
    21   10   11 ar   
    22   10   81 1    
    23   11   12 ar   
    24   11   71 1    
    25   12   13 ar   
    26   12   82 1    
    27   13   14 ar   
    28   13   15 1    
    29   14   83 1    
    30   15   16 1    
    31   15   84 1    
    32   15   85 1    
    33   16   17 1    
    34   17   18 1    
    35   17   86 1    
    36   17   87 1    
    37   18   19 1    
    38   18   37 1    
    39   18   88 1    
    40   19   20 am   BACKBONE|DICT|INTERRES
    41   19   89 1    
    42   20   21 2    
    43   20   22 1    
    44   22   23 1    
    45   22   24 1    
    46   22   90 1    
    47   23   91 1    
    48   23   92 1    
    49   23   93 1    
    50   24   25 am   BACKBONE|DICT|INTERRES
    51   24   94 1    
    52   25   26 2    
    53   25   27 1    
    54   27   28 1    
    55   27   29 1    
    56   27   95 1    
    57   28   96 1    
    58   28   97 1    
    59   28   98 1    
    60   29   30 am   BACKBONE|DICT|INTERRES
    61   29   99 1    
    62   30   31 2    
    63   30   32 1    
    64   32   33 1    
    65   32   34 1    
    66   32  100 1    
    67   33  101 1    
    68   33  102 1    
    69   33  103 1    
    70   34   35 am   BACKBONE|DICT|INTERRES
    71   34  104 1    
    72   35   36 2    
    73   37   38 2    
    74   37   39 am   BACKBONE|DICT|INTERRES
    75   39   40 1    
    76   39  105 1    
    77   40   41 1    
    78   40   42 1    
    79   40  106 1    
    80   41  107 1    
    81   41  108 1    
    82   41  109 1    
    83   42   43 2    
    84   42   44 am   BACKBONE|DICT|INTERRES
    85   44   45 1    
    86   44  110 1    
    87   45   46 1    
    88   45   47 1    
    89   45  111 1    
    90   46  112 1    
    91   46  113 1    
    92   46  114 1    
    93   47   48 2    
    94   47   49 am   BACKBONE|DICT|INTERRES
    95   49   50 1    
    96   49  115 1    
    97   50   51 1    
    98   50   52 1    
    99   50  116 1    
   100   51  117 1    
   101   51  118 1    
   102   51  119 1    
   103   52   53 2    
   104   52   54 am   BACKBONE|DICT|INTERRES
   105   54   55 1    
   106   54  120 1    
   107   55   56 1    
   108   55   57 1    
   109   55  121 1    
   110   56  122 1    
   111   56  123 1    
   112   56  124 1    
   113   57   58 2    
   114   57   59 am   BACKBONE|DICT|INTERRES
   115   59   60 1    
   116   59  125 1    
   117   60   61 1    
   118   60   62 1    
   119   60  126 1    
   120   61  127 1    
   121   61  128 1    
   122   61  129 1    
   123   62   63 2    
   124   62   64 am   BACKBONE|DICT|INTERRES
   125   64   65 1    
   126   64  130 1    
   127   65   66 1    
   128   65   69 1    
   129   65  131 1    
   130   66   67 am   BACKBONE|DICT|INTERRES
   131   66   68 2    
   132   67  132 1    
   133   67  133 1    
   134   69   70 1    
   135   69  134 1    
   136   69  135 1    
   137   70   71 1    
   138   71  136 1    
   139   71  137 1    
@<TRIPOS>SUBSTRUCTURE
     1 UNK         1 GROUP             0       ****    0 ROOT    
