@<TRIPOS>MOLECULE
3R137
137   139    1
SMALL
USER_CHARGES


@<TRIPOS>ATOM
      1 CA         27.6131    1.2770   -1.3726 C.3       0 UNK        -0.2020 
      2 C          27.5483   -0.1698   -1.8349 C.2       0 UNK         0.4855 
      3 O          27.1249   -0.4422   -2.9597 O.2       0 UNK        -0.5197 
      4 N          27.9640   -1.1027   -0.9679 N.am      1 UNK        -0.4892 
      5 CA         27.7949   -2.5442   -1.1693 C.3       1 UNK         0.0835 
      6 C6         28.6560   -3.3647   -0.1791 C.3       12 UNK        -0.0855 
      7 S7         28.8204   -5.1131   -0.6812 S.3       12 UNK        -0.2931 
      8 C8         30.4791   -5.1459   -1.4382 C.3       12 UNK         0.0378 
      9 C9         30.5392   -4.3279   -2.7210 C.ar      12 UNK        -0.0802 
     10 C10        31.2919   -3.1495   -2.7756 C.ar      12 UNK        -0.0944 
     11 C11        31.3460   -2.3887   -3.9484 C.ar      12 UNK        -0.0787 
     12 C12        30.6122   -2.8109   -5.0622 C.ar      12 UNK        -0.0862 
     13 C13        29.8648   -3.9907   -5.0270 C.ar      12 UNK        -0.0733 
     14 C14        29.8424   -4.7531   -3.8564 C.ar      12 UNK        -0.0832 
     15 C15        29.0909   -4.4344   -6.2618 C.3       12 UNK         0.0240 
     16 S16        27.2921   -4.5580   -5.9923 S.3       12 UNK        -0.2522 
     17 C17        26.8623   -2.9518   -5.2471 C.3       12 UNK        -0.0967 
     18 CA         26.6134   -1.8161   -6.2700 C.3       5 UNK         0.0660 
     19 N          25.4583   -0.9956   -5.8846 N.am      5 UNK        -0.4015 
     20 C          25.0062    0.0981   -6.5148 C.2       4 UNK         0.4946 
     21 O          25.5482    0.5878   -7.5069 O.2       4 UNK        -0.5353 
     22 CA         23.7293    0.7594   -5.9669 C.3       4 UNK         0.0277 
     23 CB         22.6097    0.7145   -7.0205 C.3       4 UNK        -0.1981 
     24 N          23.2403    0.1362   -4.7335 N.am      4 UNK        -0.4209 
     25 C          23.5844    0.4980   -3.4912 C.2       3 UNK         0.4942 
     26 O          24.3636    1.4155   -3.2354 O.2       3 UNK        -0.5208 
     27 CA         22.9245   -0.2782   -2.3356 C.3       3 UNK         0.0250 
     28 CB         21.3990   -0.4282   -2.5222 C.3       3 UNK        -0.1990 
     29 N          23.5498   -1.5766   -2.0532 N.am      3 UNK        -0.4232 
     30 C          23.6736   -2.6408   -2.8588 C.2       2 UNK         0.4993 
     31 O          23.3166   -2.6545   -4.0384 O.2       2 UNK        -0.5286 
     32 CA         24.3489   -3.8860   -2.2442 C.3       2 UNK         0.0209 
     33 CB         24.1623   -5.1484   -3.1073 C.3       2 UNK        -0.1931 
     34 N          25.7809   -3.6587   -2.0366 N.am      2 UNK        -0.4546 
     35 C          26.2935   -2.8861   -1.0720 C.2       1 UNK         0.5154 
     36 O          25.6165   -2.4087   -0.1557 O.2       1 UNK        -0.5181 
     37 C          27.8943   -0.9910   -6.5059 C.2       5 UNK         0.5014 
     38 O          28.5554   -1.1798   -7.5268 O.2       5 UNK        -0.5248 
     39 N          28.1974   -0.0648   -5.5846 N.am      6 UNK        -0.4434 
     40 CA         29.3387    0.8497   -5.6696 C.3       6 UNK         0.0363 
     41 CB         29.4399    1.6858   -4.3867 C.3       6 UNK        -0.1936 
     42 C          29.3200    1.7737   -6.8944 C.2       6 UNK         0.5081 
     43 O          30.3861    2.0607   -7.4374 O.2       6 UNK        -0.5248 
     44 N          28.1265    2.2118   -7.3150 N.am      7 UNK        -0.4718 
     45 CA         27.9369    3.0242   -8.5167 C.3       7 UNK         0.0273 
     46 CB         26.5944    3.7692   -8.4378 C.3       7 UNK        -0.1935 
     47 C          28.0198    2.1694   -9.7894 C.2       7 UNK         0.5018 
     48 O          28.6194    2.6093  -10.7701 O.2       7 UNK        -0.5186 
     49 N          27.4418    0.9603   -9.7409 N.am      8 UNK        -0.4240 
     50 CA         27.4559   -0.0190  -10.8298 C.3       8 UNK         0.0235 
     51 CB         26.4985   -1.1749  -10.4955 C.3       8 UNK        -0.2000 
     52 C          28.8667   -0.5458  -11.1448 C.2       8 UNK         0.4941 
     53 O          29.2459   -0.5934  -12.3157 O.2       8 UNK        -0.5273 
     54 N          29.6206   -0.9172  -10.1010 N.am      9 UNK        -0.4262 
     55 CA         31.0002   -1.4024  -10.2064 C.3       9 UNK         0.0264 
     56 CB         31.3273   -2.2564   -8.9729 C.3       9 UNK        -0.1955 
     57 C          32.0382   -0.2765  -10.3531 C.2       9 UNK         0.5031 
     58 O          33.1666   -0.5657  -10.7541 O.2       9 UNK        -0.5390 
     59 N          31.6524    0.9633  -10.0146 N.am      10 UNK        -0.4204 
     60 CA         32.4790    2.1736   -9.9597 C.3       10 UNK         0.0237 
     61 CB         32.9831    2.5727  -11.3636 C.3       10 UNK        -0.1985 
     62 C          33.6044    2.0472   -8.9146 C.2       10 UNK         0.4970 
     63 O          34.7831    2.1818   -9.2502 O.2       10 UNK        -0.4914 
     64 N          33.2099    1.7842   -7.6614 N.am      11 UNK        -0.4285 
     65 CA         34.1135    1.6919   -6.5002 C.3       11 UNK         0.1007 
     66 C          34.7519    3.0476   -6.0750 C.2       11 UNK         0.5703 
     67 N          34.2233    4.1937   -6.4893 N.am      11 UNK        -0.7361 
     68 O          35.7502    3.0570   -5.3585 O.2       11 UNK        -0.4986 
     69 C69        33.4350    1.0147   -5.2793 C.3       12 UNK        -0.0947 
     70 S70        32.9282   -0.7079   -5.5854 S.3       12 UNK        -0.2240 
     71 C71        32.1627   -1.0966   -3.9708 C.3       12 UNK         0.0194 
     72 H72        27.0184    1.9130   -2.0286 H         1 UNK         0.0906 
     73 H73        27.2182    1.3787   -0.3620 H         1 UNK         0.0906 
     74 H74        28.6403    1.6392   -1.3805 H         1 UNK         0.0906 
     75 H75        28.2774   -0.8200   -0.0502 H         1 UNK         0.3140 
     76 H76        28.1416   -2.7647   -2.1808 H         1 UNK         0.1085 
     77 H77        29.6548   -2.9314   -0.1050 H         1 UNK         0.0836 
     78 H78        28.2401   -3.3232    0.8296 H         1 UNK         0.0836 
     79 H79        30.7429   -6.1802   -1.6633 H         1 UNK         0.0731 
     80 H80        31.2154   -4.7953   -0.7131 H         1 UNK         0.0731 
     81 H81        31.8352   -2.8208   -1.9000 H         1 UNK         0.1312 
     82 H82        30.6196   -2.2186   -5.9643 H         1 UNK         0.1406 
     83 H83        29.2635   -5.6665   -3.8217 H         1 UNK         0.1631 
     84 H84        29.4651   -5.4069   -6.5838 H         1 UNK         0.0717 
     85 H85        29.2651   -3.7532   -7.0942 H         1 UNK         0.0717 
     86 H86        25.9422   -3.1449   -4.7011 H         1 UNK         0.0934 
     87 H87        27.5880   -2.6715   -4.4829 H         1 UNK         0.0934 
     88 H88        26.3401   -2.2614   -7.2284 H         1 UNK         0.0739 
     89 H89        24.9265   -1.3214   -5.0890 H         1 UNK         0.3093 
     90 H90        23.9697    1.8068   -5.7721 H         1 UNK         0.0818 
     91 H91        21.7137    1.2262   -6.6689 H         1 UNK         0.0819 
     92 H92        22.9198    1.2070   -7.9434 H         1 UNK         0.0819 
     93 H93        22.3346   -0.3099   -7.2747 H         1 UNK         0.0819 
     94 H94        22.6570   -0.6860   -4.8339 H         1 UNK         0.3041 
     95 H95        23.0782    0.3253   -1.4394 H         1 UNK         0.0784 
     96 H96        20.9342    0.5361   -2.7327 H         1 UNK         0.0793 
     97 H97        21.1414   -1.1005   -3.3409 H         1 UNK         0.0793 
     98 H98        20.9318   -0.8188   -1.6181 H         1 UNK         0.0793 
     99 H99        23.9853   -1.6560   -1.1390 H         1 UNK         0.3024 
    100 H100       23.8742   -4.0737   -1.2779 H         1 UNK         0.1171 
    101 H101       23.1034   -5.3544   -3.2694 H         1 UNK         0.0786 
    102 H102       24.6264   -5.0493   -4.0890 H         1 UNK         0.0786 
    103 H103       24.5907   -6.0259   -2.6228 H         1 UNK         0.0786 
    104 H104       26.4014   -4.0403   -2.7354 H         1 UNK         0.2977 
    105 H105       27.6392   -0.0305   -4.7332 H         1 UNK         0.3127 
    106 H106       30.2341    0.2364   -5.7541 H         1 UNK         0.0770 
    107 H107       28.5260    2.2514   -4.2017 H         1 UNK         0.0814 
    108 H108       30.2606    2.4020   -4.4455 H         1 UNK         0.0814 
    109 H109       29.6286    1.0542   -3.5212 H         1 UNK         0.0814 
    110 H110       27.2915    1.8660   -6.8600 H         1 UNK         0.2983 
    111 H111       28.7340    3.7700   -8.5636 H         1 UNK         0.0947 
    112 H112       26.4554    4.4103   -9.3094 H         1 UNK         0.0806 
    113 H113       26.5471    4.4078   -7.5557 H         1 UNK         0.0806 
    114 H114       25.7471    3.0839   -8.4014 H         1 UNK         0.0806 
    115 H115       26.9353    0.7048   -8.8971 H         1 UNK         0.3000 
    116 H116       27.0824    0.4812  -11.7259 H         1 UNK         0.0850 
    117 H117       26.4527   -1.8924  -11.3157 H         1 UNK         0.0810 
    118 H118       25.4848   -0.8128  -10.3226 H         1 UNK         0.0810 
    119 H119       26.8146   -1.7179   -9.6047 H         1 UNK         0.0810 
    120 H120       29.2109   -0.9013   -9.1658 H         1 UNK         0.3040 
    121 H121       31.0807   -2.0395  -11.0898 H         1 UNK         0.0766 
    122 H122       31.2695   -1.6656   -8.0593 H         1 UNK         0.0812 
    123 H123       32.3368   -2.6653   -9.0326 H         1 UNK         0.0812 
    124 H124       30.6417   -3.0978   -8.8814 H         1 UNK         0.0812 
    125 H125       30.7102    1.0739   -9.6652 H         1 UNK         0.3205 
    126 H126       31.8239    2.9744   -9.6130 H         1 UNK         0.0754 
    127 H127       33.5065    3.5290  -11.3304 H         1 UNK         0.0769 
    128 H128       32.1547    2.6804  -12.0640 H         1 UNK         0.0769 
    129 H129       33.6767    1.8388  -11.7749 H         1 UNK         0.0769 
    130 H130       32.2119    1.7326   -7.4707 H         1 UNK         0.2981 
    131 H131       34.9484    1.0554   -6.7997 H         1 UNK         0.0541 
    132 H132       33.3998    4.1971   -7.0689 H         1 UNK         0.3459 
    133 H133       34.6493    5.0631   -6.2098 H         1 UNK         0.3459 
    134 H134       32.5593    1.5881   -4.9716 H         1 UNK         0.0612 
    135 H135       34.1114    1.0020   -4.4222 H         1 UNK         0.0612 
    136 H136       32.9585   -1.1447   -3.2260 H         1 UNK         0.0624 
    137 H137       31.5118   -0.2770   -3.6716 H         1 UNK         0.0624 
@<TRIPOS>BOND
     1    1    2 1    
     2    1   72 1    
     3    1   73 1    
     4    1   74 1    
     5    2    3 2    
     6    2    4 am   BACKBONE|DICT|INTERRES
     7    4    5 1    
     8    4   75 1    
     9    5    6 1    
    10    5   35 1    
    11    5   76 1    
    12    6    7 1    
    13    6   77 1    
    14    6   78 1    
    15    7    8 1    
    16    8    9 1    
    17    8   79 1    
    18    8   80 1    
    19    9   10 ar   
    20    9   14 ar   
    21   10   11 ar   
    22   10   81 1    
    23   11   12 ar   
    24   11   71 1    
    25   12   13 ar   
    26   12   82 1    
    27   13   14 ar   
    28   13   15 1    
    29   14   83 1    
    30   15   16 1    
    31   15   84 1    
    32   15   85 1    
    33   16   17 1    
    34   17   18 1    
    35   17   86 1    
    36   17   87 1    
    37   18   19 1    
    38   18   37 1    
    39   18   88 1    
    40   19   20 am   BACKBONE|DICT|INTERRES
    41   19   89 1    
    42   20   21 2    
    43   20   22 1    
    44   22   23 1    
    45   22   24 1    
    46   22   90 1    
    47   23   91 1    
    48   23   92 1    
    49   23   93 1    
    50   24   25 am   BACKBONE|DICT|INTERRES
    51   24   94 1    
    52   25   26 2    
    53   25   27 1    
    54   27   28 1    
    55   27   29 1    
    56   27   95 1    
    57   28   96 1    
    58   28   97 1    
    59   28   98 1    
    60   29   30 am   BACKBONE|DICT|INTERRES
    61   29   99 1    
    62   30   31 2    
    63   30   32 1    
    64   32   33 1    
    65   32   34 1    
    66   32  100 1    
    67   33  101 1    
    68   33  102 1    
    69   33  103 1    
    70   34   35 am   BACKBONE|DICT|INTERRES
    71   34  104 1    
    72   35   36 2    
    73   37   38 2    
    74   37   39 am   BACKBONE|DICT|INTERRES
    75   39   40 1    
    76   39  105 1    
    77   40   41 1    
    78   40   42 1    
    79   40  106 1    
    80   41  107 1    
    81   41  108 1    
    82   41  109 1    
    83   42   43 2    
    84   42   44 am   BACKBONE|DICT|INTERRES
    85   44   45 1    
    86   44  110 1    
    87   45   46 1    
    88   45   47 1    
    89   45  111 1    
    90   46  112 1    
    91   46  113 1    
    92   46  114 1    
    93   47   48 2    
    94   47   49 am   BACKBONE|DICT|INTERRES
    95   49   50 1    
    96   49  115 1    
    97   50   51 1    
    98   50   52 1    
    99   50  116 1    
   100   51  117 1    
   101   51  118 1    
   102   51  119 1    
   103   52   53 2    
   104   52   54 am   BACKBONE|DICT|INTERRES
   105   54   55 1    
   106   54  120 1    
   107   55   56 1    
   108   55   57 1    
   109   55  121 1    
   110   56  122 1    
   111   56  123 1    
   112   56  124 1    
   113   57   58 2    
   114   57   59 am   BACKBONE|DICT|INTERRES
   115   59   60 1    
   116   59  125 1    
   117   60   61 1    
   118   60   62 1    
   119   60  126 1    
   120   61  127 1    
   121   61  128 1    
   122   61  129 1    
   123   62   63 2    
   124   62   64 am   BACKBONE|DICT|INTERRES
   125   64   65 1    
   126   64  130 1    
   127   65   66 1    
   128   65   69 1    
   129   65  131 1    
   130   66   67 am   BACKBONE|DICT|INTERRES
   131   66   68 2    
   132   67  132 1    
   133   67  133 1    
   134   69   70 1    
   135   69  134 1    
   136   69  135 1    
   137   70   71 1    
   138   71  136 1    
   139   71  137 1    
@<TRIPOS>SUBSTRUCTURE
     1 UNK         1 GROUP             0       ****    0 ROOT    
