@<TRIPOS>MOLECULE
3R137
137   139    1
SMALL
USER_CHARGES


@<TRIPOS>ATOM
      1 CA         24.2282   -5.8854    0.8793 C.3       0 UNK        -0.2020 
      2 C          25.5065   -5.0606    0.8537 C.2       0 UNK         0.4855 
      3 O          26.3478   -5.2056    1.7409 O.2       0 UNK        -0.5197 
      4 N          25.6582   -4.1963   -0.1535 N.am      1 UNK        -0.4892 
      5 CA         26.7935   -3.2969   -0.3375 C.3       1 UNK         0.0835 
      6 C6         27.9573   -3.9950   -1.0940 C.3       12 UNK        -0.0855 
      7 S7         29.5524   -3.1129   -0.9605 S.3       12 UNK        -0.2931 
      8 C8         29.5537   -2.0741   -2.4591 C.3       12 UNK         0.0378 
      9 C9         30.2387   -2.7268   -3.6497 C.ar      12 UNK        -0.0802 
     10 C10        31.5484   -2.3740   -3.9848 C.ar      12 UNK        -0.0944 
     11 C11        32.1575   -2.9051   -5.1253 C.ar      12 UNK        -0.0787 
     12 C12        31.4477   -3.8013   -5.9317 C.ar      12 UNK        -0.0862 
     13 C13        30.1422   -4.1766   -5.5975 C.ar      12 UNK        -0.0733 
     14 C14        29.5468   -3.6368   -4.4532 C.ar      12 UNK        -0.0832 
     15 C15        29.3916   -5.1917   -6.4516 C.3       12 UNK         0.0240 
     16 S16        28.4953   -4.4244   -7.8410 S.3       12 UNK        -0.2522 
     17 C17        27.0411   -3.7024   -7.0001 C.3       12 UNK        -0.0967 
     18 CA         26.5236   -2.3729   -7.6145 C.3       5 UNK         0.0660 
     19 N          25.2714   -1.9186   -6.9894 N.am      5 UNK        -0.4015 
     20 C          25.0653   -1.6038   -5.7022 C.2       4 UNK         0.4946 
     21 O          25.9655   -1.5400   -4.8601 O.2       4 UNK        -0.5353 
     22 CA         23.6105   -1.3294   -5.2931 C.3       4 UNK         0.0277 
     23 CB         22.7522   -2.6048   -5.3863 C.3       4 UNK        -0.1981 
     24 N          23.5789   -0.8338   -3.9199 N.am      4 UNK        -0.4209 
     25 C          22.7167    0.0683   -3.4311 C.2       3 UNK         0.4942 
     26 O          21.7895    0.5481   -4.0851 O.2       3 UNK        -0.5208 
     27 CA         22.9112    0.5248   -1.9686 C.3       3 UNK         0.0250 
     28 CB         21.9188   -0.1986   -1.0436 C.3       3 UNK        -0.1990 
     29 N          24.2720    0.3013   -1.4753 N.am      3 UNK        -0.4232 
     30 C          25.3579    0.9404   -1.9252 C.2       2 UNK         0.4993 
     31 O          25.2992    1.9386   -2.6447 O.2       2 UNK        -0.5286 
     32 CA         26.7445    0.3692   -1.5622 C.3       2 UNK         0.0209 
     33 CB         27.6023    1.4251   -0.8432 C.3       2 UNK        -0.1931 
     34 N          26.8082   -0.8862   -0.7925 N.am      2 UNK        -0.4546 
     35 C          26.2701   -2.0743   -1.1075 C.2       1 UNK         0.5154 
     36 O          25.4173   -2.2417   -1.9818 O.2       1 UNK        -0.5181 
     37 C          27.6138   -1.2820   -7.6985 C.2       5 UNK         0.5014 
     38 O          28.1262   -1.0391   -8.7915 O.2       5 UNK        -0.5248 
     39 N          27.9397   -0.6362   -6.5710 N.am      6 UNK        -0.4434 
     40 CA         29.0464    0.3127   -6.4027 C.3       6 UNK         0.0363 
     41 CB         29.0475    0.8546   -4.9656 C.3       6 UNK        -0.1936 
     42 C          29.0619    1.4797   -7.4023 C.2       6 UNK         0.5081 
     43 O          30.1420    1.8942   -7.8208 O.2       6 UNK        -0.5248 
     44 N          27.8760    1.9695   -7.7860 N.am      7 UNK        -0.4718 
     45 CA         27.7034    3.0353   -8.7764 C.3       7 UNK         0.0273 
     46 CB         26.2642    3.5694   -8.6982 C.3       7 UNK        -0.1935 
     47 C          28.0368    2.5966  -10.2143 C.2       7 UNK         0.5018 
     48 O          28.4852    3.4278  -11.0039 O.2       7 UNK        -0.5186 
     49 N          27.8178    1.3124  -10.5286 N.am      8 UNK        -0.4240 
     50 CA         28.1289    0.7112  -11.8273 C.3       8 UNK         0.0235 
     51 CB         27.1397   -0.4300  -12.1173 C.3       8 UNK        -0.2000 
     52 C          29.5756    0.1995  -11.8682 C.2       8 UNK         0.4941 
     53 O          30.2525    0.3723  -12.8820 O.2       8 UNK        -0.5273 
     54 N          30.0279   -0.4015  -10.7589 N.am      9 UNK        -0.4262 
     55 CA         31.3872   -0.9117  -10.5657 C.3       9 UNK         0.0264 
     56 CB         31.3864   -1.8625   -9.3571 C.3       9 UNK        -0.1955 
     57 C          32.4478    0.1934  -10.3898 C.2       9 UNK         0.5031 
     58 O          33.6361   -0.0988  -10.5305 O.2       9 UNK        -0.5390 
     59 N          32.0045    1.4237  -10.0863 N.am      10 UNK        -0.4204 
     60 CA         32.7981    2.6207   -9.7817 C.3       10 UNK         0.0237 
     61 CB         33.6621    3.0515  -10.9867 C.3       10 UNK        -0.1985 
     62 C          33.5969    2.4700   -8.4726 C.2       10 UNK         0.4970 
     63 O          34.7503    2.8981   -8.3950 O.2       10 UNK        -0.4914 
     64 N          32.9518    1.8667   -7.4686 N.am      11 UNK        -0.4285 
     65 CA         33.4873    1.6498   -6.1169 C.3       11 UNK         0.1007 
     66 C          33.0954    2.7760   -5.1189 C.2       11 UNK         0.5703 
     67 N          32.1961    3.6911   -5.4645 N.am      11 UNK        -0.7361 
     68 O          33.6281    2.8281   -4.0131 O.2       11 UNK        -0.4986 
     69 C69        33.0888    0.2576   -5.5618 C.3       12 UNK        -0.0947 
     70 S70        33.6561   -1.1124   -6.6237 S.3       12 UNK        -0.2240 
     71 C71        33.5881   -2.5214   -5.4757 C.3       12 UNK         0.0194 
     72 H72        24.4668   -6.9481    0.8457 H         1 UNK         0.0906 
     73 H73        23.6734   -5.6895    1.7965 H         1 UNK         0.0906 
     74 H74        23.5784   -5.6572    0.0346 H         1 UNK         0.0906 
     75 H75        24.9325   -4.0744   -0.8507 H         1 UNK         0.3140 
     76 H76        27.1400   -2.9679    0.6452 H         1 UNK         0.1085 
     77 H77        28.1226   -4.9858   -0.6676 H         1 UNK         0.0836 
     78 H78        27.6979   -4.1719   -2.1378 H         1 UNK         0.0836 
     79 H79        28.5361   -1.8159   -2.7466 H         1 UNK         0.0731 
     80 H80        30.0447   -1.1300   -2.2179 H         1 UNK         0.0731 
     81 H81        32.0906   -1.6728   -3.3653 H         1 UNK         0.1312 
     82 H82        31.9152   -4.2133   -6.8157 H         1 UNK         0.1406 
     83 H83        28.5392   -3.9196   -4.1890 H         1 UNK         0.1631 
     84 H84        28.6930   -5.7645   -5.8396 H         1 UNK         0.0717 
     85 H85        30.0987   -5.9175   -6.8561 H         1 UNK         0.0717 
     86 H86        26.2459   -4.4489   -7.0270 H         1 UNK         0.0934 
     87 H87        27.2649   -3.5570   -5.9466 H         1 UNK         0.0934 
     88 H88        26.2513   -2.5936   -8.6482 H         1 UNK         0.0739 
     89 H89        24.4746   -1.9000   -7.6105 H         1 UNK         0.3093 
     90 H90        23.2133   -0.5678   -5.9677 H         1 UNK         0.0818 
     91 H91        21.7218   -2.4100   -5.0882 H         1 UNK         0.0819 
     92 H92        22.7218   -2.9952   -6.4040 H         1 UNK         0.0819 
     93 H93        23.1406   -3.3956   -4.7429 H         1 UNK         0.0819 
     94 H94        24.3392   -1.1748   -3.3345 H         1 UNK         0.3041 
     95 H95        22.7045    1.5963   -1.9275 H         1 UNK         0.0784 
     96 H96        20.8904   -0.0293   -1.3661 H         1 UNK         0.0793 
     97 H97        22.0854   -1.2767   -1.0378 H         1 UNK         0.0793 
     98 H98        21.9982    0.1602   -0.0172 H         1 UNK         0.0793 
     99 H99        24.4246   -0.5408   -0.9380 H         1 UNK         0.3024 
    100 H100       27.2141    0.1612   -2.5253 H         1 UNK         0.1171 
    101 H101       27.6383    2.3589   -1.4064 H         1 UNK         0.0786 
    102 H102       28.6322    1.0878   -0.7242 H         1 UNK         0.0786 
    103 H103       27.2062    1.6566    0.1462 H         1 UNK         0.0786 
    104 H104       27.4659   -0.8738   -0.0256 H         1 UNK         0.2977 
    105 H105       27.4108   -0.8911   -5.7378 H         1 UNK         0.3127 
    106 H106       29.9666   -0.2536   -6.5559 H         1 UNK         0.0770 
    107 H107       29.1854    0.0528   -4.2444 H         1 UNK         0.0814 
    108 H108       28.1148    1.3672   -4.7262 H         1 UNK         0.0814 
    109 H109       29.8605    1.5662   -4.8135 H         1 UNK         0.0814 
    110 H110       27.0400    1.5676   -7.3873 H         1 UNK         0.2983 
    111 H111       28.3846    3.8497   -8.5189 H         1 UNK         0.0947 
    112 H112       26.1120    4.3844   -9.4073 H         1 UNK         0.0806 
    113 H113       26.0392    3.9605   -7.7057 H         1 UNK         0.0806 
    114 H114       25.5315    2.7953   -8.9296 H         1 UNK         0.0806 
    115 H115       27.5268    0.6765   -9.7953 H         1 UNK         0.3000 
    116 H116       28.0153    1.4629  -12.6119 H         1 UNK         0.0850 
    117 H117       27.3401   -0.8801  -13.0905 H         1 UNK         0.0810 
    118 H118       26.1118   -0.0674  -12.1341 H         1 UNK         0.0810 
    119 H119       27.2024   -1.2242  -11.3723 H         1 UNK         0.0810 
    120 H120       29.3724   -0.5599   -9.9940 H         1 UNK         0.3040 
    121 H121       31.6617   -1.4869  -11.4523 H         1 UNK         0.0766 
    122 H122       32.3721   -2.3039   -9.2050 H         1 UNK         0.0812 
    123 H123       30.6821   -2.6831   -9.4952 H         1 UNK         0.0812 
    124 H124       31.1153   -1.3443   -8.4368 H         1 UNK         0.0812 
    125 H125       31.0098    1.5219   -9.9292 H         1 UNK         0.3205 
    126 H126       32.0753    3.4175   -9.5997 H         1 UNK         0.0754 
    127 H127       34.1304    4.0194  -10.8037 H         1 UNK         0.0769 
    128 H128       33.0606    3.1486  -11.8905 H         1 UNK         0.0769 
    129 H129       34.4620    2.3391  -11.1904 H         1 UNK         0.0769 
    130 H130       31.9745    1.6248   -7.6066 H         1 UNK         0.2981 
    131 H131       34.5774    1.6714   -6.1684 H         1 UNK         0.0541 
    132 H132       31.7460    3.6511   -6.3651 H         1 UNK         0.3459 
    133 H133       31.9585    4.4204   -4.8112 H         1 UNK         0.3459 
    134 H134       32.0071    0.1837   -5.4488 H         1 UNK         0.0612 
    135 H135       33.5145    0.1131   -4.5672 H         1 UNK         0.0612 
    136 H136       34.0930   -3.3711   -5.9374 H         1 UNK         0.0624 
    137 H137       34.1547   -2.2860   -4.5735 H         1 UNK         0.0624 
@<TRIPOS>BOND
     1    1    2 1    
     2    1   72 1    
     3    1   73 1    
     4    1   74 1    
     5    2    3 2    
     6    2    4 am   BACKBONE|DICT|INTERRES
     7    4    5 1    
     8    4   75 1    
     9    5    6 1    
    10    5   35 1    
    11    5   76 1    
    12    6    7 1    
    13    6   77 1    
    14    6   78 1    
    15    7    8 1    
    16    8    9 1    
    17    8   79 1    
    18    8   80 1    
    19    9   10 ar   
    20    9   14 ar   
    21   10   11 ar   
    22   10   81 1    
    23   11   12 ar   
    24   11   71 1    
    25   12   13 ar   
    26   12   82 1    
    27   13   14 ar   
    28   13   15 1    
    29   14   83 1    
    30   15   16 1    
    31   15   84 1    
    32   15   85 1    
    33   16   17 1    
    34   17   18 1    
    35   17   86 1    
    36   17   87 1    
    37   18   19 1    
    38   18   37 1    
    39   18   88 1    
    40   19   20 am   BACKBONE|DICT|INTERRES
    41   19   89 1    
    42   20   21 2    
    43   20   22 1    
    44   22   23 1    
    45   22   24 1    
    46   22   90 1    
    47   23   91 1    
    48   23   92 1    
    49   23   93 1    
    50   24   25 am   BACKBONE|DICT|INTERRES
    51   24   94 1    
    52   25   26 2    
    53   25   27 1    
    54   27   28 1    
    55   27   29 1    
    56   27   95 1    
    57   28   96 1    
    58   28   97 1    
    59   28   98 1    
    60   29   30 am   BACKBONE|DICT|INTERRES
    61   29   99 1    
    62   30   31 2    
    63   30   32 1    
    64   32   33 1    
    65   32   34 1    
    66   32  100 1    
    67   33  101 1    
    68   33  102 1    
    69   33  103 1    
    70   34   35 am   BACKBONE|DICT|INTERRES
    71   34  104 1    
    72   35   36 2    
    73   37   38 2    
    74   37   39 am   BACKBONE|DICT|INTERRES
    75   39   40 1    
    76   39  105 1    
    77   40   41 1    
    78   40   42 1    
    79   40  106 1    
    80   41  107 1    
    81   41  108 1    
    82   41  109 1    
    83   42   43 2    
    84   42   44 am   BACKBONE|DICT|INTERRES
    85   44   45 1    
    86   44  110 1    
    87   45   46 1    
    88   45   47 1    
    89   45  111 1    
    90   46  112 1    
    91   46  113 1    
    92   46  114 1    
    93   47   48 2    
    94   47   49 am   BACKBONE|DICT|INTERRES
    95   49   50 1    
    96   49  115 1    
    97   50   51 1    
    98   50   52 1    
    99   50  116 1    
   100   51  117 1    
   101   51  118 1    
   102   51  119 1    
   103   52   53 2    
   104   52   54 am   BACKBONE|DICT|INTERRES
   105   54   55 1    
   106   54  120 1    
   107   55   56 1    
   108   55   57 1    
   109   55  121 1    
   110   56  122 1    
   111   56  123 1    
   112   56  124 1    
   113   57   58 2    
   114   57   59 am   BACKBONE|DICT|INTERRES
   115   59   60 1    
   116   59  125 1    
   117   60   61 1    
   118   60   62 1    
   119   60  126 1    
   120   61  127 1    
   121   61  128 1    
   122   61  129 1    
   123   62   63 2    
   124   62   64 am   BACKBONE|DICT|INTERRES
   125   64   65 1    
   126   64  130 1    
   127   65   66 1    
   128   65   69 1    
   129   65  131 1    
   130   66   67 am   BACKBONE|DICT|INTERRES
   131   66   68 2    
   132   67  132 1    
   133   67  133 1    
   134   69   70 1    
   135   69  134 1    
   136   69  135 1    
   137   70   71 1    
   138   71  136 1    
   139   71  137 1    
@<TRIPOS>SUBSTRUCTURE
     1 UNK         1 GROUP             0       ****    0 ROOT    
