@<TRIPOS>MOLECULE
3R137
137   139    1
SMALL
USER_CHARGES


@<TRIPOS>ATOM
      1 CA         27.5404   -3.4574    4.2076 C.3       0 UNK        -0.2020 
      2 C          27.5566   -2.9623    2.7691 C.2       0 UNK         0.4855 
      3 O          27.1465   -1.8311    2.5060 O.2       0 UNK        -0.5197 
      4 N          28.0365   -3.7953    1.8379 N.am      1 UNK        -0.4892 
      5 CA         28.0855   -3.5062    0.4003 C.3       1 UNK         0.0835 
      6 C6         29.0302   -4.4804   -0.3521 C.3       12 UNK        -0.0855 
      7 S7         30.7262   -4.5733    0.3336 S.3       12 UNK        -0.2931 
      8 C8         31.4567   -2.9534   -0.0823 C.3       12 UNK         0.0378 
      9 C9         31.5026   -2.7056   -1.5825 C.ar      12 UNK        -0.0802 
     10 C10        32.5627   -3.1884   -2.3586 C.ar      12 UNK        -0.0944 
     11 C11        32.5885   -2.9849   -3.7443 C.ar      12 UNK        -0.0787 
     12 C12        31.5238   -2.3003   -4.3440 C.ar      12 UNK        -0.0862 
     13 C13        30.4692   -1.8054   -3.5774 C.ar      12 UNK        -0.0733 
     14 C14        30.4715   -1.9933   -2.1967 C.ar      12 UNK        -0.0832 
     15 C15        29.3119   -1.0890   -4.2418 C.3       12 UNK         0.0240 
     16 S16        28.0764   -2.2872   -4.8293 S.3       12 UNK        -0.2522 
     17 C17        28.5128   -2.4680   -6.5945 C.3       12 UNK        -0.0967 
     18 CA         27.6821   -1.5498   -7.5276 C.3       5 UNK         0.0660 
     19 N          26.2481   -1.6210   -7.2331 N.am      5 UNK        -0.4015 
     20 C          25.2754   -1.0937   -7.9847 C.2       4 UNK         0.4946 
     21 O          25.4704   -0.5125   -9.0513 O.2       4 UNK        -0.5353 
     22 CA         23.8482   -1.1942   -7.4241 C.3       4 UNK         0.0277 
     23 CB         23.2455   -2.5763   -7.7232 C.3       4 UNK        -0.1981 
     24 N          23.7517   -0.9132   -5.9855 N.am      4 UNK        -0.4209 
     25 C          24.0766    0.2559   -5.4115 C.2       3 UNK         0.4942 
     26 O          24.5967    1.1903   -6.0200 O.2       3 UNK        -0.5208 
     27 CA         23.7637    0.4195   -3.9153 C.3       3 UNK         0.0250 
     28 CB         22.3226    0.9205   -3.7264 C.3       3 UNK        -0.1990 
     29 N          23.9539   -0.8211   -3.1576 N.am      3 UNK        -0.4232 
     30 C          25.1309   -1.2112   -2.6519 C.2       2 UNK         0.4993 
     31 O          26.1658   -0.5440   -2.7304 O.2       2 UNK        -0.5286 
     32 CA         25.1570   -2.5732   -1.9439 C.3       2 UNK         0.0209 
     33 CB         24.9620   -3.7323   -2.9430 C.3       2 UNK        -0.1931 
     34 N          26.4342   -2.7187   -1.2461 N.am      2 UNK        -0.4546 
     35 C          26.6684   -3.5402   -0.2165 C.2       1 UNK         0.5154 
     36 O          25.8250   -4.3224    0.2323 O.2       1 UNK        -0.5181 
     37 C          28.2204   -0.1051   -7.5166 C.2       5 UNK         0.5014 
     38 O          29.0949    0.2155   -8.3229 O.2       5 UNK        -0.5248 
     39 N          27.6929    0.7338   -6.6131 N.am      6 UNK        -0.4434 
     40 CA         28.0516    2.1449   -6.4874 C.3       6 UNK         0.0363 
     41 CB         27.6444    2.6659   -5.1001 C.3       6 UNK        -0.1936 
     42 C          27.4182    2.9837   -7.6056 C.2       6 UNK         0.5081 
     43 O          28.0923    3.8502   -8.1600 O.2       6 UNK        -0.5248 
     44 N          26.1593    2.6795   -7.9548 N.am      7 UNK        -0.4718 
     45 CA         25.4374    3.2706   -9.0858 C.3       7 UNK         0.0273 
     46 CB         23.9678    2.8222   -9.0496 C.3       7 UNK        -0.1935 
     47 C          26.0824    2.9332  -10.4420 C.2       7 UNK         0.5018 
     48 O          26.1849    3.8113  -11.2990 O.2       7 UNK        -0.5186 
     49 N          26.5420    1.6829  -10.5948 N.am      8 UNK        -0.4240 
     50 CA         27.3252    1.2125  -11.7416 C.3       8 UNK         0.0235 
     51 CB         27.3190   -0.3253  -11.7517 C.3       8 UNK        -0.2000 
     52 C          28.7764    1.7322  -11.7553 C.2       8 UNK         0.4941 
     53 O          29.4235    1.6519  -12.8000 O.2       8 UNK        -0.5273 
     54 N          29.2621    2.2261  -10.6055 N.am      9 UNK        -0.4262 
     55 CA         30.6291    2.6774  -10.3211 C.3       9 UNK         0.0264 
     56 CB         30.9645    3.9556  -11.1185 C.3       9 UNK        -0.1955 
     57 C          31.6709    1.5552  -10.5002 C.2       9 UNK         0.5031 
     58 O          32.7454    1.7917  -11.0568 O.2       9 UNK        -0.5390 
     59 N          31.3255    0.3468  -10.0345 N.am      10 UNK        -0.4204 
     60 CA         32.1630   -0.8508  -10.1240 C.3       10 UNK         0.0237 
     61 CB         31.2966   -2.1006   -9.8921 C.3       10 UNK        -0.1985 
     62 C          33.3416   -0.8081   -9.1391 C.2       10 UNK         0.4970 
     63 O          34.4746   -1.0857   -9.5338 O.2       10 UNK        -0.4914 
     64 N          33.0440   -0.4469   -7.8878 N.am      11 UNK        -0.4285 
     65 CA         33.9750   -0.2936   -6.7641 C.3       11 UNK         0.1007 
     66 C          33.2665    0.4019   -5.5702 C.2       11 UNK         0.5703 
     67 N          33.9749    0.6601   -4.4794 N.am      11 UNK        -0.7361 
     68 O          32.0839    0.7364   -5.6324 O.2       11 UNK        -0.4986 
     69 C69        34.7582   -1.5932   -6.3851 C.3       12 UNK        -0.0947 
     70 S70        33.7867   -3.1426   -6.3310 S.3       12 UNK        -0.2240 
     71 C71        33.7576   -3.5588   -4.5486 C.3       12 UNK         0.0194 
     72 H72        27.9454   -4.4653    4.2969 H         1 UNK         0.0906 
     73 H73        28.1342   -2.7968    4.8388 H         1 UNK         0.0906 
     74 H74        26.5197   -3.4672    4.5891 H         1 UNK         0.0906 
     75 H75        28.3529   -4.7166    2.1051 H         1 UNK         0.3140 
     76 H76        28.4705   -2.4915    0.2859 H         1 UNK         0.1085 
     77 H77        29.0885   -4.2278   -1.4119 H         1 UNK         0.0836 
     78 H78        28.6191   -5.4916   -0.3213 H         1 UNK         0.0836 
     79 H79        30.8994   -2.1625    0.4219 H         1 UNK         0.0731 
     80 H80        32.4682   -2.9115    0.3247 H         1 UNK         0.0731 
     81 H81        33.3637   -3.7378   -1.8825 H         1 UNK         0.1312 
     82 H82        31.4976   -2.1443   -5.4113 H         1 UNK         0.1406 
     83 H83        29.6542   -1.6065   -1.6057 H         1 UNK         0.1631 
     84 H84        29.6790   -0.4675   -5.0580 H         1 UNK         0.0717 
     85 H85        28.8333   -0.4078   -3.5367 H         1 UNK         0.0717 
     86 H86        29.5842   -2.3219   -6.7393 H         1 UNK         0.0934 
     87 H87        28.3284   -3.5088   -6.8648 H         1 UNK         0.0934 
     88 H88        27.8142   -1.9157   -8.5482 H         1 UNK         0.0739 
     89 H89        26.0024   -2.0653   -6.3603 H         1 UNK         0.3093 
     90 H90        23.2460   -0.4446   -7.9420 H         1 UNK         0.0818 
     91 H91        22.1948   -2.6217   -7.4361 H         1 UNK         0.0819 
     92 H92        23.2962   -2.8009   -8.7898 H         1 UNK         0.0819 
     93 H93        23.7726   -3.3732   -7.1971 H         1 UNK         0.0819 
     94 H94        23.3289   -1.6277   -5.4123 H         1 UNK         0.3041 
     95 H95        24.4354    1.1868   -3.5228 H         1 UNK         0.0784 
     96 H96        22.1611    1.8541   -4.2675 H         1 UNK         0.0793 
     97 H97        21.5888    0.2011   -4.0922 H         1 UNK         0.0793 
     98 H98        22.1063    1.1161   -2.6759 H         1 UNK         0.0793 
     99 H99        23.1421   -1.4078   -3.0257 H         1 UNK         0.3024 
    100 H100       24.3492   -2.5832   -1.2083 H         1 UNK         0.1171 
    101 H101       24.0150   -3.6457   -3.4762 H         1 UNK         0.0786 
    102 H102       24.9523   -4.6970   -2.4356 H         1 UNK         0.0786 
    103 H103       25.7563   -3.7599   -3.6888 H         1 UNK         0.0786 
    104 H104       27.1379   -2.0620   -1.5617 H         1 UNK         0.2977 
    105 H105       26.9564    0.3971   -6.0090 H         1 UNK         0.3127 
    106 H106       29.1373    2.2320   -6.5747 H         1 UNK         0.0770 
    107 H107       26.5664    2.6185   -4.9448 H         1 UNK         0.0814 
    108 H108       27.9452    3.7067   -4.9740 H         1 UNK         0.0814 
    109 H109       28.1220    2.0921   -4.3056 H         1 UNK         0.0814 
    110 H110       25.6549    1.9936   -7.3977 H         1 UNK         0.2983 
    111 H111       25.4674    4.3560   -8.9673 H         1 UNK         0.0947 
    112 H112       23.3995    3.2822   -9.8590 H         1 UNK         0.0806 
    113 H113       23.4894    3.1080   -8.1126 H         1 UNK         0.0806 
    114 H114       23.8721    1.7414   -9.1562 H         1 UNK         0.0806 
    115 H115       26.3269    0.9945   -9.8766 H         1 UNK         0.3000 
    116 H116       26.8418    1.5653  -12.6550 H         1 UNK         0.0850 
    117 H117       27.8589   -0.7148  -12.6158 H         1 UNK         0.0810 
    118 H118       26.3031   -0.7180  -11.8002 H         1 UNK         0.0810 
    119 H119       27.7933   -0.7342  -10.8587 H         1 UNK         0.0810 
    120 H120       28.6390    2.2356   -9.8088 H         1 UNK         0.3040 
    121 H121       30.6457    2.9375   -9.2616 H         1 UNK         0.0766 
    122 H122       31.9300    4.3626  -10.8158 H         1 UNK         0.0812 
    123 H123       30.2187    4.7326  -10.9503 H         1 UNK         0.0812 
    124 H124       31.0146    3.7637  -12.1907 H         1 UNK         0.0812 
    125 H125       30.4396    0.2602   -9.5359 H         1 UNK         0.3205 
    126 H126       32.5730   -0.9063  -11.1349 H         1 UNK         0.0754 
    127 H127       31.8951   -3.0094   -9.9697 H         1 UNK         0.0769 
    128 H128       30.4995   -2.1720  -10.6325 H         1 UNK         0.0769 
    129 H129       30.8353   -2.0977   -8.9042 H         1 UNK         0.0769 
    130 H130       32.0915   -0.1955   -7.6569 H         1 UNK         0.2981 
    131 H131       34.7117    0.4389   -7.0983 H         1 UNK         0.0541 
    132 H132       34.9484    0.4102   -4.4132 H         1 UNK         0.3459 
    133 H133       33.5203    1.1147   -3.7038 H         1 UNK         0.3459 
    134 H134       35.3041   -1.4688   -5.4496 H         1 UNK         0.0612 
    135 H135       35.5370   -1.7544   -7.1313 H         1 UNK         0.0612 
    136 H136       34.7008   -3.2602   -4.0895 H         1 UNK         0.0624 
    137 H137       33.7131   -4.6457   -4.4689 H         1 UNK         0.0624 
@<TRIPOS>BOND
     1    1    2 1    
     2    1   72 1    
     3    1   73 1    
     4    1   74 1    
     5    2    3 2    
     6    2    4 am   BACKBONE|DICT|INTERRES
     7    4    5 1    
     8    4   75 1    
     9    5    6 1    
    10    5   35 1    
    11    5   76 1    
    12    6    7 1    
    13    6   77 1    
    14    6   78 1    
    15    7    8 1    
    16    8    9 1    
    17    8   79 1    
    18    8   80 1    
    19    9   10 ar   
    20    9   14 ar   
    21   10   11 ar   
    22   10   81 1    
    23   11   12 ar   
    24   11   71 1    
    25   12   13 ar   
    26   12   82 1    
    27   13   14 ar   
    28   13   15 1    
    29   14   83 1    
    30   15   16 1    
    31   15   84 1    
    32   15   85 1    
    33   16   17 1    
    34   17   18 1    
    35   17   86 1    
    36   17   87 1    
    37   18   19 1    
    38   18   37 1    
    39   18   88 1    
    40   19   20 am   BACKBONE|DICT|INTERRES
    41   19   89 1    
    42   20   21 2    
    43   20   22 1    
    44   22   23 1    
    45   22   24 1    
    46   22   90 1    
    47   23   91 1    
    48   23   92 1    
    49   23   93 1    
    50   24   25 am   BACKBONE|DICT|INTERRES
    51   24   94 1    
    52   25   26 2    
    53   25   27 1    
    54   27   28 1    
    55   27   29 1    
    56   27   95 1    
    57   28   96 1    
    58   28   97 1    
    59   28   98 1    
    60   29   30 am   BACKBONE|DICT|INTERRES
    61   29   99 1    
    62   30   31 2    
    63   30   32 1    
    64   32   33 1    
    65   32   34 1    
    66   32  100 1    
    67   33  101 1    
    68   33  102 1    
    69   33  103 1    
    70   34   35 am   BACKBONE|DICT|INTERRES
    71   34  104 1    
    72   35   36 2    
    73   37   38 2    
    74   37   39 am   BACKBONE|DICT|INTERRES
    75   39   40 1    
    76   39  105 1    
    77   40   41 1    
    78   40   42 1    
    79   40  106 1    
    80   41  107 1    
    81   41  108 1    
    82   41  109 1    
    83   42   43 2    
    84   42   44 am   BACKBONE|DICT|INTERRES
    85   44   45 1    
    86   44  110 1    
    87   45   46 1    
    88   45   47 1    
    89   45  111 1    
    90   46  112 1    
    91   46  113 1    
    92   46  114 1    
    93   47   48 2    
    94   47   49 am   BACKBONE|DICT|INTERRES
    95   49   50 1    
    96   49  115 1    
    97   50   51 1    
    98   50   52 1    
    99   50  116 1    
   100   51  117 1    
   101   51  118 1    
   102   51  119 1    
   103   52   53 2    
   104   52   54 am   BACKBONE|DICT|INTERRES
   105   54   55 1    
   106   54  120 1    
   107   55   56 1    
   108   55   57 1    
   109   55  121 1    
   110   56  122 1    
   111   56  123 1    
   112   56  124 1    
   113   57   58 2    
   114   57   59 am   BACKBONE|DICT|INTERRES
   115   59   60 1    
   116   59  125 1    
   117   60   61 1    
   118   60   62 1    
   119   60  126 1    
   120   61  127 1    
   121   61  128 1    
   122   61  129 1    
   123   62   63 2    
   124   62   64 am   BACKBONE|DICT|INTERRES
   125   64   65 1    
   126   64  130 1    
   127   65   66 1    
   128   65   69 1    
   129   65  131 1    
   130   66   67 am   BACKBONE|DICT|INTERRES
   131   66   68 2    
   132   67  132 1    
   133   67  133 1    
   134   69   70 1    
   135   69  134 1    
   136   69  135 1    
   137   70   71 1    
   138   71  136 1    
   139   71  137 1    
@<TRIPOS>SUBSTRUCTURE
     1 UNK         1 GROUP             0       ****    0 ROOT    
