@<TRIPOS>MOLECULE
3R137
137   139    1
SMALL
USER_CHARGES


@<TRIPOS>ATOM
      1 CA         24.0582   -1.0416   -0.6094 C.3       0 UNK        -0.2020 
      2 C          25.4584   -0.7532   -0.0921 C.2       0 UNK         0.4855 
      3 O          25.6791    0.2807    0.5394 O.2       0 UNK        -0.5197 
      4 N          26.4127   -1.6515   -0.3630 N.am      1 UNK        -0.4892 
      5 CA         27.8198   -1.6072    0.0613 C.3       1 UNK         0.0835 
      6 C6         28.4371   -3.0351    0.0617 C.3       12 UNK        -0.0855 
      7 S7         28.2407   -3.9360   -1.5222 S.3       12 UNK        -0.2931 
      8 C8         29.8975   -4.6606   -1.7497 C.3       12 UNK         0.0378 
      9 C9         30.1608   -5.0008   -3.2106 C.ar      12 UNK        -0.0802 
     10 C10        31.1022   -4.2657   -3.9379 C.ar      12 UNK        -0.0944 
     11 C11        31.3233   -4.5356   -5.2912 C.ar      12 UNK        -0.0787 
     12 C12        30.6110   -5.5627   -5.9156 C.ar      12 UNK        -0.0862 
     13 C13        29.6707   -6.3107   -5.1994 C.ar      12 UNK        -0.0733 
     14 C14        29.4538   -6.0288   -3.8453 C.ar      12 UNK        -0.0832 
     15 C15        28.9078   -7.4398   -5.8801 C.3       12 UNK         0.0240 
     16 S16        27.2257   -6.9474   -6.3820 S.3       12 UNK        -0.2522 
     17 C17        27.5392   -5.8803   -7.8327 C.3       12 UNK        -0.0967 
     18 CA         26.7723   -4.5356   -7.7647 C.3       5 UNK         0.0660 
     19 N          27.0313   -3.8122   -6.5144 N.am      5 UNK        -0.4015 
     20 C          26.4355   -2.6764   -6.1227 C.2       4 UNK         0.4946 
     21 O          25.5395   -2.1246   -6.7635 O.2       4 UNK        -0.5353 
     22 CA         26.9559   -2.0605   -4.8120 C.3       4 UNK         0.0277 
     23 CB         28.4786   -2.1983   -4.6751 C.3       4 UNK        -0.1981 
     24 N          26.6606   -0.6396   -4.6935 N.am      4 UNK        -0.4209 
     25 C          25.5362   -0.0884   -4.2356 C.2       3 UNK         0.4942 
     26 O          24.5254   -0.7184   -3.9213 O.2       3 UNK        -0.5208 
     27 CA         25.6205    1.4325   -4.0074 C.3       3 UNK         0.0250 
     28 CB         24.2508    2.0677   -3.7071 C.3       3 UNK        -0.1990 
     29 N          26.5400    1.7176   -2.9010 N.am      3 UNK        -0.4232 
     30 C          27.8805    1.6748   -2.9708 C.2       2 UNK         0.4993 
     31 O          28.5073    1.4908   -4.0160 O.2       2 UNK        -0.5286 
     32 CA         28.6325    1.7564   -1.6361 C.3       2 UNK         0.0209 
     33 CB         28.4388    3.1236   -0.9589 C.3       2 UNK        -0.1931 
     34 N          28.1615    0.6872   -0.7540 N.am      2 UNK        -0.4546 
     35 C          28.6488   -0.5602   -0.7261 C.2       1 UNK         0.5154 
     36 O          29.6927   -0.8873   -1.2925 O.2       1 UNK        -0.5181 
     37 C          27.0657   -3.6808   -9.0187 C.2       5 UNK         0.5014 
     38 O          26.4002   -3.8610  -10.0396 O.2       5 UNK        -0.5248 
     39 N          28.0268   -2.7528   -8.9085 N.am      6 UNK        -0.4434 
     40 CA         28.3207   -1.7155   -9.8918 C.3       6 UNK         0.0363 
     41 CB         29.7583   -1.8916  -10.4152 C.3       6 UNK        -0.1936 
     42 C          28.0952   -0.3506   -9.2265 C.2       6 UNK         0.5081 
     43 O          29.0465    0.4013   -9.0090 O.2       6 UNK        -0.5248 
     44 N          26.8317   -0.0450   -8.9007 N.am      7 UNK        -0.4718 
     45 CA         26.4033    1.2097   -8.2641 C.3       7 UNK         0.0273 
     46 CB         24.9023    1.1377   -7.9399 C.3       7 UNK        -0.1935 
     47 C          26.7083    2.4777   -9.0847 C.2       7 UNK         0.5018 
     48 O          26.8530    3.5486   -8.4967 O.2       7 UNK        -0.5186 
     49 N          26.8305    2.3329  -10.4130 N.am      8 UNK        -0.4240 
     50 CA         27.2741    3.3854  -11.3318 C.3       8 UNK         0.0235 
     51 CB         27.0153    2.9427  -12.7810 C.3       8 UNK        -0.2000 
     52 C          28.7544    3.7643  -11.1372 C.2       8 UNK         0.4941 
     53 O          29.0966    4.9393  -11.2746 O.2       8 UNK        -0.5273 
     54 N          29.5970    2.7741  -10.8067 N.am      9 UNK        -0.4262 
     55 CA         30.9929    2.9749  -10.4070 C.3       9 UNK         0.0264 
     56 CB         31.8016    1.7026  -10.7128 C.3       9 UNK        -0.1955 
     57 C          31.1079    3.3374   -8.9160 C.2       9 UNK         0.5031 
     58 O          32.0462    4.0404   -8.5395 O.2       9 UNK        -0.5390 
     59 N          30.1523    2.8463   -8.1124 N.am      10 UNK        -0.4204 
     60 CA         30.0272    2.9757   -6.6591 C.3       10 UNK         0.0237 
     61 CB         29.8418    4.4468   -6.2318 C.3       10 UNK        -0.1985 
     62 C          31.1774    2.2590   -5.9335 C.2       10 UNK         0.4970 
     63 O          31.8391    2.8491   -5.0771 O.2       10 UNK        -0.4914 
     64 N          31.4034    0.9953   -6.3171 N.am      11 UNK        -0.4285 
     65 CA         32.4524    0.1263   -5.7633 C.3       11 UNK         0.1007 
     66 C          32.2052   -0.3765   -4.3073 C.2       11 UNK         0.5703 
     67 N          31.0554   -0.1106   -3.7006 N.am      11 UNK        -0.7361 
     68 O          33.0784   -1.0127   -3.7221 O.2       11 UNK        -0.4986 
     69 C69        32.8099   -1.0168   -6.7530 C.3       12 UNK        -0.0947 
     70 S70        31.5216   -2.3050   -6.9064 S.3       12 UNK        -0.2240 
     71 C71        32.3296   -3.7095   -6.0737 C.3       12 UNK         0.0194 
     72 H72        24.0364   -1.9177   -1.2576 H         1 UNK         0.0906 
     73 H73        23.3781   -1.2152    0.2239 H         1 UNK         0.0906 
     74 H74        23.6860   -0.1932   -1.1822 H         1 UNK         0.0906 
     75 H75        26.1821   -2.4620   -0.9218 H         1 UNK         0.3140 
     76 H76        27.8361   -1.2615    1.0975 H         1 UNK         0.1085 
     77 H77        27.9530   -3.6332    0.8354 H         1 UNK         0.0836 
     78 H78        29.4887   -2.9940    0.3507 H         1 UNK         0.0836 
     79 H79        30.6532   -3.9601   -1.3904 H         1 UNK         0.0731 
     80 H80        29.9889   -5.5588   -1.1375 H         1 UNK         0.0731 
     81 H81        31.6436   -3.4604   -3.4594 H         1 UNK         0.1312 
     82 H82        30.7910   -5.7758   -6.9603 H         1 UNK         0.1406 
     83 H83        28.7227   -6.5984   -3.2873 H         1 UNK         0.1631 
     84 H84        28.8318   -8.2854   -5.1949 H         1 UNK         0.0717 
     85 H85        29.4542   -7.8075   -6.7501 H         1 UNK         0.0717 
     86 H86        27.2412   -6.4381   -8.7228 H         1 UNK         0.0934 
     87 H87        28.6103   -5.7043   -7.9379 H         1 UNK         0.0934 
     88 H88        25.7032   -4.7582   -7.7795 H         1 UNK         0.0739 
     89 H89        27.7293   -4.2248   -5.9120 H         1 UNK         0.3093 
     90 H90        26.4801   -2.5939   -3.9864 H         1 UNK         0.0818 
     91 H91        28.8244   -1.8076   -3.7186 H         1 UNK         0.0819 
     92 H92        28.7852   -3.2383   -4.7107 H         1 UNK         0.0819 
     93 H93        29.0098   -1.6663   -5.4643 H         1 UNK         0.0819 
     94 H94        27.4395   -0.0099   -4.8512 H         1 UNK         0.3041 
     95 H95        26.0084    1.8891   -4.9208 H         1 UNK         0.0784 
     96 H96        23.5449    1.8670   -4.5143 H         1 UNK         0.0793 
     97 H97        23.8136    1.6792   -2.7870 H         1 UNK         0.0793 
     98 H98        24.3303    3.1505   -3.6090 H         1 UNK         0.0793 
     99 H99        26.1151    1.8393   -1.9937 H         1 UNK         0.3024 
    100 H100       29.6980    1.6269   -1.8399 H         1 UNK         0.1171 
    101 H101       29.0345    3.1971   -0.0489 H         1 UNK         0.0786 
    102 H102       27.3984    3.3087   -0.6896 H         1 UNK         0.0786 
    103 H103       28.7562    3.9326   -1.6185 H         1 UNK         0.0786 
    104 H104       27.2913    0.8417   -0.2506 H         1 UNK         0.2977 
    105 H105       28.5106   -2.6674   -8.0257 H         1 UNK         0.3127 
    106 H106       27.6400   -1.7784  -10.7434 H         1 UNK         0.0770 
    107 H107       30.4975   -1.7955   -9.6203 H         1 UNK         0.0814 
    108 H108       29.9927   -1.1389  -11.1689 H         1 UNK         0.0814 
    109 H109       29.8928   -2.8684  -10.8796 H         1 UNK         0.0814 
    110 H110       26.1134   -0.7404   -9.0528 H         1 UNK         0.2983 
    111 H111       26.9508    1.2994   -7.3235 H         1 UNK         0.0947 
    112 H112       24.5630    2.0523   -7.4511 H         1 UNK         0.0806 
    113 H113       24.6779    0.3137   -7.2635 H         1 UNK         0.0806 
    114 H114       24.3007    1.0061   -8.8400 H         1 UNK         0.0806 
    115 H115       26.6612    1.4192  -10.8073 H         1 UNK         0.3000 
    116 H116       26.6766    4.2783  -11.1345 H         1 UNK         0.0850 
    117 H117       27.3167    3.7200  -13.4848 H         1 UNK         0.0810 
    118 H118       25.9569    2.7460  -12.9531 H         1 UNK         0.0810 
    119 H119       27.5716    2.0397  -13.0359 H         1 UNK         0.0810 
    120 H120       29.2272    1.8406  -10.6855 H         1 UNK         0.3040 
    121 H121       31.4183    3.7965  -10.9876 H         1 UNK         0.0766 
    122 H122       31.4493    0.8461  -10.1368 H         1 UNK         0.0812 
    123 H123       31.7475    1.4418  -11.7698 H         1 UNK         0.0812 
    124 H124       32.8549    1.8450  -10.4678 H         1 UNK         0.0812 
    125 H125       29.5119    2.1804   -8.5353 H         1 UNK         0.3205 
    126 H126       29.1138    2.4442   -6.3907 H         1 UNK         0.0754 
    127 H127       29.6306    4.5142   -5.1638 H         1 UNK         0.0769 
    128 H128       29.0050    4.9064   -6.7581 H         1 UNK         0.0769 
    129 H129       30.7323    5.0450   -6.4263 H         1 UNK         0.0769 
    130 H130       30.8115    0.5798   -7.0225 H         1 UNK         0.2981 
    131 H131       33.3470    0.7475   -5.6894 H         1 UNK         0.0541 
    132 H132       30.8728   -0.4697   -2.7695 H         1 UNK         0.3459 
    133 H133       30.3428    0.4414   -4.1570 H         1 UNK         0.3459 
    134 H134       32.9829   -0.6010   -7.7469 H         1 UNK         0.0612 
    135 H135       33.7594   -1.4724   -6.4688 H         1 UNK         0.0612 
    136 H136       32.8335   -4.3265   -6.8189 H         1 UNK         0.0624 
    137 H137       33.1055   -3.3554   -5.3937 H         1 UNK         0.0624 
@<TRIPOS>BOND
     1    1    2 1    
     2    1   72 1    
     3    1   73 1    
     4    1   74 1    
     5    2    3 2    
     6    2    4 am   BACKBONE|DICT|INTERRES
     7    4    5 1    
     8    4   75 1    
     9    5    6 1    
    10    5   35 1    
    11    5   76 1    
    12    6    7 1    
    13    6   77 1    
    14    6   78 1    
    15    7    8 1    
    16    8    9 1    
    17    8   79 1    
    18    8   80 1    
    19    9   10 ar   
    20    9   14 ar   
    21   10   11 ar   
    22   10   81 1    
    23   11   12 ar   
    24   11   71 1    
    25   12   13 ar   
    26   12   82 1    
    27   13   14 ar   
    28   13   15 1    
    29   14   83 1    
    30   15   16 1    
    31   15   84 1    
    32   15   85 1    
    33   16   17 1    
    34   17   18 1    
    35   17   86 1    
    36   17   87 1    
    37   18   19 1    
    38   18   37 1    
    39   18   88 1    
    40   19   20 am   BACKBONE|DICT|INTERRES
    41   19   89 1    
    42   20   21 2    
    43   20   22 1    
    44   22   23 1    
    45   22   24 1    
    46   22   90 1    
    47   23   91 1    
    48   23   92 1    
    49   23   93 1    
    50   24   25 am   BACKBONE|DICT|INTERRES
    51   24   94 1    
    52   25   26 2    
    53   25   27 1    
    54   27   28 1    
    55   27   29 1    
    56   27   95 1    
    57   28   96 1    
    58   28   97 1    
    59   28   98 1    
    60   29   30 am   BACKBONE|DICT|INTERRES
    61   29   99 1    
    62   30   31 2    
    63   30   32 1    
    64   32   33 1    
    65   32   34 1    
    66   32  100 1    
    67   33  101 1    
    68   33  102 1    
    69   33  103 1    
    70   34   35 am   BACKBONE|DICT|INTERRES
    71   34  104 1    
    72   35   36 2    
    73   37   38 2    
    74   37   39 am   BACKBONE|DICT|INTERRES
    75   39   40 1    
    76   39  105 1    
    77   40   41 1    
    78   40   42 1    
    79   40  106 1    
    80   41  107 1    
    81   41  108 1    
    82   41  109 1    
    83   42   43 2    
    84   42   44 am   BACKBONE|DICT|INTERRES
    85   44   45 1    
    86   44  110 1    
    87   45   46 1    
    88   45   47 1    
    89   45  111 1    
    90   46  112 1    
    91   46  113 1    
    92   46  114 1    
    93   47   48 2    
    94   47   49 am   BACKBONE|DICT|INTERRES
    95   49   50 1    
    96   49  115 1    
    97   50   51 1    
    98   50   52 1    
    99   50  116 1    
   100   51  117 1    
   101   51  118 1    
   102   51  119 1    
   103   52   53 2    
   104   52   54 am   BACKBONE|DICT|INTERRES
   105   54   55 1    
   106   54  120 1    
   107   55   56 1    
   108   55   57 1    
   109   55  121 1    
   110   56  122 1    
   111   56  123 1    
   112   56  124 1    
   113   57   58 2    
   114   57   59 am   BACKBONE|DICT|INTERRES
   115   59   60 1    
   116   59  125 1    
   117   60   61 1    
   118   60   62 1    
   119   60  126 1    
   120   61  127 1    
   121   61  128 1    
   122   61  129 1    
   123   62   63 2    
   124   62   64 am   BACKBONE|DICT|INTERRES
   125   64   65 1    
   126   64  130 1    
   127   65   66 1    
   128   65   69 1    
   129   65  131 1    
   130   66   67 am   BACKBONE|DICT|INTERRES
   131   66   68 2    
   132   67  132 1    
   133   67  133 1    
   134   69   70 1    
   135   69  134 1    
   136   69  135 1    
   137   70   71 1    
   138   71  136 1    
   139   71  137 1    
@<TRIPOS>SUBSTRUCTURE
     1 UNK         1 GROUP             0       ****    0 ROOT    
