@<TRIPOS>MOLECULE
3R137
137   139    1
SMALL
USER_CHARGES


@<TRIPOS>ATOM
      1 CA         22.4289    0.3325   -3.9873 C.3       0 UNK        -0.2020 
      2 C          22.8817   -1.1142   -3.8665 C.2       0 UNK         0.4855 
      3 O          22.1887   -1.9290   -3.2568 O.2       0 UNK        -0.5197 
      4 N          24.0522   -1.4371   -4.4267 N.am      1 UNK        -0.4892 
      5 CA         24.6566   -2.7696   -4.4266 C.3       1 UNK         0.0835 
      6 C6         25.7548   -2.8817   -5.5128 C.3       12 UNK        -0.0855 
      7 S7         25.9172   -4.5743   -6.1728 S.3       12 UNK        -0.2931 
      8 C8         27.2181   -5.2991   -5.1205 C.3       12 UNK         0.0378 
      9 C9         28.5319   -4.5253   -5.1439 C.ar      12 UNK        -0.0802 
     10 C10        29.1881   -4.2551   -6.3498 C.ar      12 UNK        -0.0944 
     11 C11        30.4087   -3.5697   -6.3640 C.ar      12 UNK        -0.0787 
     12 C12        30.9804   -3.1729   -5.1496 C.ar      12 UNK        -0.0862 
     13 C13        30.3407   -3.4487   -3.9364 C.ar      12 UNK        -0.0733 
     14 C14        29.1137   -4.1154   -3.9418 C.ar      12 UNK        -0.0832 
     15 C15        30.9852   -3.0573   -2.6133 C.3       12 UNK         0.0240 
     16 S16        30.0781   -1.7216   -1.7724 S.3       12 UNK        -0.2522 
     17 C17        30.2912   -0.3593   -2.9620 C.3       12 UNK        -0.0967 
     18 CA         28.9691    0.0031   -3.6815 C.3       5 UNK         0.0660 
     19 N          27.9905    0.5536   -2.7433 N.am      5 UNK        -0.4015 
     20 C          26.6933    0.7509   -2.9977 C.2       4 UNK         0.4946 
     21 O          26.1413    0.4587   -4.0620 O.2       4 UNK        -0.5353 
     22 CA         25.8701    1.3829   -1.8714 C.3       4 UNK         0.0277 
     23 CB         25.1090    2.6252   -2.3798 C.3       4 UNK        -0.1981 
     24 N          24.9529    0.3803   -1.3276 N.am      4 UNK        -0.4209 
     25 C          24.2937    0.4972   -0.1651 C.2       3 UNK         0.4942 
     26 O          24.4023    1.4733    0.5783 O.2       3 UNK        -0.5208 
     27 CA         23.3471   -0.6414    0.2605 C.3       3 UNK         0.0250 
     28 CB         21.8795   -0.2544    0.0122 C.3       3 UNK        -0.1990 
     29 N          23.6262   -1.9161   -0.4030 N.am      3 UNK        -0.4232 
     30 C          24.5200   -2.8156    0.0357 C.2       2 UNK         0.4993 
     31 O          25.1863   -2.6756    1.0618 O.2       2 UNK        -0.5286 
     32 CA         24.7119   -4.0854   -0.8161 C.3       2 UNK         0.0209 
     33 CB         23.8160   -5.2236   -0.3015 C.3       2 UNK        -0.1931 
     34 N          24.4443   -3.8616   -2.2399 N.am      2 UNK        -0.4546 
     35 C          25.1951   -3.0721   -3.0179 C.2       1 UNK         0.5154 
     36 O          26.2307   -2.5303   -2.6307 O.2       1 UNK        -0.5181 
     37 C          29.2309    1.0040   -4.8226 C.2       5 UNK         0.5014 
     38 O          30.0249    1.9298   -4.6376 O.2       5 UNK        -0.5248 
     39 N          28.5489    0.8218   -5.9604 N.am      6 UNK        -0.4434 
     40 CA         28.6782    1.6708   -7.1475 C.3       6 UNK         0.0363 
     41 CB         27.9656    3.0217   -6.9165 C.3       6 UNK        -0.1936 
     42 C          28.1794    0.9784   -8.4288 C.2       6 UNK         0.5081 
     43 O          27.9025    1.6728   -9.4068 O.2       6 UNK        -0.5248 
     44 N          28.0683   -0.3605   -8.4386 N.am      7 UNK        -0.4718 
     45 CA         27.4943   -1.1284   -9.5575 C.3       7 UNK         0.0273 
     46 CB         27.3670   -2.6063   -9.1677 C.3       7 UNK        -0.1935 
     47 C          28.2728   -1.0016  -10.8783 C.2       7 UNK         0.5018 
     48 O          27.6567   -0.9399  -11.9425 O.2       7 UNK        -0.5186 
     49 N          29.6051   -0.9362  -10.7748 N.am      8 UNK        -0.4240 
     50 CA         30.5267   -0.6809  -11.8842 C.3       8 UNK         0.0235 
     51 CB         31.6684   -1.7133  -11.8254 C.3       8 UNK        -0.2000 
     52 C          31.0726    0.7589  -11.8418 C.2       8 UNK         0.4941 
     53 O          32.0841    1.0344  -12.4895 O.2       8 UNK        -0.5273 
     54 N          30.4359    1.6411  -11.0529 N.am      9 UNK        -0.4262 
     55 CA         30.8176    3.0170  -10.7078 C.3       9 UNK         0.0264 
     56 CB         30.8393    3.9367  -11.9450 C.3       9 UNK        -0.1955 
     57 C          32.1290    3.1001   -9.9085 C.2       9 UNK         0.5031 
     58 O          32.1147    3.5549   -8.7644 O.2       9 UNK        -0.5390 
     59 N          33.2283    2.6284  -10.5092 N.am      10 UNK        -0.4204 
     60 CA         34.5840    2.6216   -9.9541 C.3       10 UNK         0.0237 
     61 CB         35.5674    2.1502  -11.0375 C.3       10 UNK        -0.1985 
     62 C          34.7401    1.7728   -8.6804 C.2       10 UNK         0.4970 
     63 O          35.6156    2.0753   -7.8685 O.2       10 UNK        -0.4914 
     64 N          33.8966    0.7439   -8.5204 N.am      11 UNK        -0.4285 
     65 CA         33.8212   -0.0779   -7.3046 C.3       11 UNK         0.1007 
     66 C          33.1137    0.6063   -6.0991 C.2       11 UNK         0.5703 
     67 N          32.4749    1.7588   -6.2652 N.am      11 UNK        -0.7361 
     68 O          33.1494    0.0737   -4.9935 O.2       11 UNK        -0.4986 
     69 C69        33.2581   -1.4934   -7.6008 C.3       12 UNK        -0.0947 
     70 S70        31.4740   -1.5550   -8.0012 S.3       12 UNK        -0.2240 
     71 C71        31.1276   -3.3194   -7.6876 C.3       12 UNK         0.0194 
     72 H72        21.4005    0.3748   -4.3450 H         1 UNK         0.0906 
     73 H73        22.4738    0.8298   -3.0200 H         1 UNK         0.0906 
     74 H74        23.0510    0.8915   -4.6863 H         1 UNK         0.0906 
     75 H75        24.6630   -0.6904   -4.7476 H         1 UNK         0.3140 
     76 H76        23.8641   -3.4839   -4.6629 H         1 UNK         0.1085 
     77 H77        26.7183   -2.4933   -5.1779 H         1 UNK         0.0836 
     78 H78        25.4813   -2.2577   -6.3648 H         1 UNK         0.0836 
     79 H79        26.8353   -5.3849   -4.1025 H         1 UNK         0.0731 
     80 H80        27.4098   -6.3184   -5.4582 H         1 UNK         0.0731 
     81 H81        28.7467   -4.5952   -7.2760 H         1 UNK         0.1312 
     82 H82        31.9300   -2.6574   -5.1453 H         1 UNK         0.1406 
     83 H83        28.6180   -4.3205   -3.0021 H         1 UNK         0.1631 
     84 H84        32.0224   -2.7510   -2.7594 H         1 UNK         0.0717 
     85 H85        31.0148   -3.9288   -1.9579 H         1 UNK         0.0717 
     86 H86        30.6974    0.5036   -2.4305 H         1 UNK         0.0934 
     87 H87        31.0534   -0.6414   -3.6885 H         1 UNK         0.0934 
     88 H88        28.5536   -0.9110   -4.1126 H         1 UNK         0.0739 
     89 H89        28.3565    0.8171   -1.8408 H         1 UNK         0.3093 
     90 H90        26.5470    1.6982   -1.0742 H         1 UNK         0.0818 
     91 H91        24.5651    3.1240   -1.5780 H         1 UNK         0.0819 
     92 H92        25.8005    3.3565   -2.8002 H         1 UNK         0.0819 
     93 H93        24.3941    2.3723   -3.1619 H         1 UNK         0.0819 
     94 H94        24.8830   -0.4774   -1.8591 H         1 UNK         0.3041 
     95 H95        23.4721   -0.7692    1.3382 H         1 UNK         0.0784 
     96 H96        21.6397    0.6996    0.4841 H         1 UNK         0.0793 
     97 H97        21.6542   -0.1595   -1.0491 H         1 UNK         0.0793 
     98 H98        21.2009   -0.9985    0.4296 H         1 UNK         0.0793 
     99 H99        23.1110   -2.1145   -1.2533 H         1 UNK         0.3024 
    100 H100       25.7554   -4.3921   -0.7104 H         1 UNK         0.1171 
    101 H101       24.0114   -5.4270    0.7524 H         1 UNK         0.0786 
    102 H102       23.9978   -6.1497   -0.8473 H         1 UNK         0.0786 
    103 H103       22.7570   -4.9793   -0.3953 H         1 UNK         0.0786 
    104 H104       23.5818   -4.2378   -2.6092 H         1 UNK         0.2977 
    105 H105       27.8242    0.1172   -5.9832 H         1 UNK         0.3127 
    106 H106       29.7396    1.8680   -7.3125 H         1 UNK         0.0770 
    107 H107       26.8970    2.8841   -6.7480 H         1 UNK         0.0814 
    108 H108       28.0809    3.6843   -7.7752 H         1 UNK         0.0814 
    109 H109       28.3734    3.5518   -6.0562 H         1 UNK         0.0814 
    110 H110       28.3897   -0.8893   -7.6412 H         1 UNK         0.2983 
    111 H111       26.4896   -0.7388   -9.7369 H         1 UNK         0.0947 
    112 H112       26.8792   -3.1784   -9.9582 H         1 UNK         0.0806 
    113 H113       26.7686   -2.7288   -8.2687 H         1 UNK         0.0806 
    114 H114       28.3404   -3.0605   -8.9936 H         1 UNK         0.0806 
    115 H115       30.0169   -1.0065   -9.8530 H         1 UNK         0.3000 
    116 H116       30.0130   -0.7980  -12.8406 H         1 UNK         0.0850 
    117 H117       32.2853   -1.5878  -10.9352 H         1 UNK         0.0810 
    118 H118       31.2816   -2.7325  -11.8237 H         1 UNK         0.0810 
    119 H119       32.3256   -1.6212  -12.6911 H         1 UNK         0.0810 
    120 H120       29.5873    1.3261  -10.5947 H         1 UNK         0.3040 
    121 H121       30.0289    3.3848  -10.0491 H         1 UNK         0.0766 
    122 H122       29.8738    3.9372  -12.4510 H         1 UNK         0.0812 
    123 H123       31.5954    3.6402  -12.6721 H         1 UNK         0.0812 
    124 H124       31.0541    4.9669  -11.6581 H         1 UNK         0.0812 
    125 H125       33.0954    2.1920  -11.4200 H         1 UNK         0.3205 
    126 H126       34.8330    3.6510   -9.6883 H         1 UNK         0.0754 
    127 H127       35.5393    2.8034  -11.9099 H         1 UNK         0.0769 
    128 H128       35.3438    1.1357  -11.3707 H         1 UNK         0.0769 
    129 H129       36.5928    2.1539  -10.6648 H         1 UNK         0.0769 
    130 H130       33.2001    0.5650   -9.2266 H         1 UNK         0.2981 
    131 H131       34.8493   -0.2331   -6.9713 H         1 UNK         0.0541 
    132 H132       32.4591    2.2345   -7.1582 H         1 UNK         0.3459 
    133 H133       31.9397    2.1292   -5.4906 H         1 UNK         0.3459 
    134 H134       33.8054   -1.9407   -8.4320 H         1 UNK         0.0612 
    135 H135       33.4522   -2.1428   -6.7466 H         1 UNK         0.0612 
    136 H136       32.0552   -3.8928   -7.7027 H         1 UNK         0.0624 
    137 H137       30.5367   -3.6985   -8.5217 H         1 UNK         0.0624 
@<TRIPOS>BOND
     1    1    2 1    
     2    1   72 1    
     3    1   73 1    
     4    1   74 1    
     5    2    3 2    
     6    2    4 am   BACKBONE|DICT|INTERRES
     7    4    5 1    
     8    4   75 1    
     9    5    6 1    
    10    5   35 1    
    11    5   76 1    
    12    6    7 1    
    13    6   77 1    
    14    6   78 1    
    15    7    8 1    
    16    8    9 1    
    17    8   79 1    
    18    8   80 1    
    19    9   10 ar   
    20    9   14 ar   
    21   10   11 ar   
    22   10   81 1    
    23   11   12 ar   
    24   11   71 1    
    25   12   13 ar   
    26   12   82 1    
    27   13   14 ar   
    28   13   15 1    
    29   14   83 1    
    30   15   16 1    
    31   15   84 1    
    32   15   85 1    
    33   16   17 1    
    34   17   18 1    
    35   17   86 1    
    36   17   87 1    
    37   18   19 1    
    38   18   37 1    
    39   18   88 1    
    40   19   20 am   BACKBONE|DICT|INTERRES
    41   19   89 1    
    42   20   21 2    
    43   20   22 1    
    44   22   23 1    
    45   22   24 1    
    46   22   90 1    
    47   23   91 1    
    48   23   92 1    
    49   23   93 1    
    50   24   25 am   BACKBONE|DICT|INTERRES
    51   24   94 1    
    52   25   26 2    
    53   25   27 1    
    54   27   28 1    
    55   27   29 1    
    56   27   95 1    
    57   28   96 1    
    58   28   97 1    
    59   28   98 1    
    60   29   30 am   BACKBONE|DICT|INTERRES
    61   29   99 1    
    62   30   31 2    
    63   30   32 1    
    64   32   33 1    
    65   32   34 1    
    66   32  100 1    
    67   33  101 1    
    68   33  102 1    
    69   33  103 1    
    70   34   35 am   BACKBONE|DICT|INTERRES
    71   34  104 1    
    72   35   36 2    
    73   37   38 2    
    74   37   39 am   BACKBONE|DICT|INTERRES
    75   39   40 1    
    76   39  105 1    
    77   40   41 1    
    78   40   42 1    
    79   40  106 1    
    80   41  107 1    
    81   41  108 1    
    82   41  109 1    
    83   42   43 2    
    84   42   44 am   BACKBONE|DICT|INTERRES
    85   44   45 1    
    86   44  110 1    
    87   45   46 1    
    88   45   47 1    
    89   45  111 1    
    90   46  112 1    
    91   46  113 1    
    92   46  114 1    
    93   47   48 2    
    94   47   49 am   BACKBONE|DICT|INTERRES
    95   49   50 1    
    96   49  115 1    
    97   50   51 1    
    98   50   52 1    
    99   50  116 1    
   100   51  117 1    
   101   51  118 1    
   102   51  119 1    
   103   52   53 2    
   104   52   54 am   BACKBONE|DICT|INTERRES
   105   54   55 1    
   106   54  120 1    
   107   55   56 1    
   108   55   57 1    
   109   55  121 1    
   110   56  122 1    
   111   56  123 1    
   112   56  124 1    
   113   57   58 2    
   114   57   59 am   BACKBONE|DICT|INTERRES
   115   59   60 1    
   116   59  125 1    
   117   60   61 1    
   118   60   62 1    
   119   60  126 1    
   120   61  127 1    
   121   61  128 1    
   122   61  129 1    
   123   62   63 2    
   124   62   64 am   BACKBONE|DICT|INTERRES
   125   64   65 1    
   126   64  130 1    
   127   65   66 1    
   128   65   69 1    
   129   65  131 1    
   130   66   67 am   BACKBONE|DICT|INTERRES
   131   66   68 2    
   132   67  132 1    
   133   67  133 1    
   134   69   70 1    
   135   69  134 1    
   136   69  135 1    
   137   70   71 1    
   138   71  136 1    
   139   71  137 1    
@<TRIPOS>SUBSTRUCTURE
     1 UNK         1 GROUP             0       ****    0 ROOT    
