@<TRIPOS>MOLECULE
3R137
137   139    1
SMALL
USER_CHARGES


@<TRIPOS>ATOM
      1 CA         22.6415   -4.2829   -3.7862 C.3       0 UNK        -0.2020 
      2 C          23.4809   -4.5730   -2.5513 C.2       0 UNK         0.4855 
      3 O          22.9533   -5.0599   -1.5507 O.2       0 UNK        -0.5197 
      4 N          24.7843   -4.2788   -2.6072 N.am      1 UNK        -0.4892 
      5 CA         25.7606   -4.5234   -1.5417 C.3       1 UNK         0.0835 
      6 C6         27.1981   -4.7321   -2.0931 C.3       12 UNK        -0.0855 
      7 S7         27.7555   -3.5074   -3.3307 S.3       12 UNK        -0.2931 
      8 C8         29.1935   -2.7858   -2.4852 C.3       12 UNK         0.0378 
      9 C9         29.8881   -1.7766   -3.3825 C.ar      12 UNK        -0.0802 
     10 C10        30.9319   -2.1813   -4.2205 C.ar      12 UNK        -0.0944 
     11 C11        31.5621   -1.2575   -5.0581 C.ar      12 UNK        -0.0787 
     12 C12        31.1230    0.0686   -5.0737 C.ar      12 UNK        -0.0862 
     13 C13        30.0793    0.4852   -4.2428 C.ar      12 UNK        -0.0733 
     14 C14        29.4811   -0.4390   -3.3806 C.ar      12 UNK        -0.0832 
     15 C15        29.6034    1.9334   -4.2933 C.3       12 UNK         0.0240 
     16 S16        27.8166    2.1039   -4.6319 S.3       12 UNK        -0.2522 
     17 C17        27.5633    0.9795   -6.0480 C.3       12 UNK        -0.0967 
     18 CA         26.7162   -0.2489   -5.6298 C.3       5 UNK         0.0660 
     19 N          25.3378    0.1340   -5.3150 N.am      5 UNK        -0.4015 
     20 C          24.4462   -0.6457   -4.6937 C.2       4 UNK         0.4946 
     21 O          24.6867   -1.7828   -4.2818 O.2       4 UNK        -0.5353 
     22 CA         23.0288   -0.0632   -4.5528 C.3       4 UNK         0.0277 
     23 CB         22.1632   -0.4809   -5.7532 C.3       4 UNK        -0.1981 
     24 N          22.3631   -0.4863   -3.3188 N.am      4 UNK        -0.4209 
     25 C          22.7446   -0.1474   -2.0798 C.2       3 UNK         0.4942 
     26 O          23.6918    0.6025   -1.8387 O.2       3 UNK        -0.5208 
     27 CA         21.9248   -0.7172   -0.9084 C.3       3 UNK         0.0250 
     28 CB         20.5912   -1.3752   -1.3221 C.3       3 UNK        -0.1990 
     29 N          22.7355   -1.6985   -0.1929 N.am      3 UNK        -0.4232 
     30 C          23.4405   -1.4642    0.9220 C.2       2 UNK         0.4993 
     31 O          23.4369   -0.3934    1.5309 O.2       2 UNK        -0.5286 
     32 CA         24.2833   -2.6317    1.4645 C.3       2 UNK         0.0209 
     33 CB         23.5308   -3.3607    2.5900 C.3       2 UNK        -0.1931 
     34 N          24.6361   -3.5975    0.4199 N.am      2 UNK        -0.4546 
     35 C          25.6466   -3.4429   -0.4457 C.2       1 UNK         0.5154 
     36 O          26.4331   -2.4959   -0.4058 O.2       1 UNK        -0.5181 
     37 C          26.7582   -1.3381   -6.7167 C.2       5 UNK         0.5014 
     38 O          25.9107   -1.3432   -7.6140 O.2       5 UNK        -0.5248 
     39 N          27.7637   -2.2200   -6.6275 N.am      6 UNK        -0.4434 
     40 CA         27.9865   -3.3332   -7.5554 C.3       6 UNK         0.0363 
     41 CB         29.0954   -4.2427   -7.0027 C.3       6 UNK        -0.1936 
     42 C          28.3113   -2.8863   -8.9927 C.2       6 UNK         0.5081 
     43 O          27.9316   -3.5775   -9.9388 O.2       6 UNK        -0.5248 
     44 N          28.9780   -1.7361   -9.1319 N.am      7 UNK        -0.4718 
     45 CA         29.2744   -1.0620  -10.3903 C.3       7 UNK         0.0273 
     46 CB         30.4464   -1.7541  -11.1127 C.3       7 UNK        -0.1935 
     47 C          29.5740    0.4139  -10.0982 C.2       7 UNK         0.5018 
     48 O          29.8451    0.7746   -8.9484 O.2       7 UNK        -0.5186 
     49 N          29.5095    1.2400  -11.1487 N.am      8 UNK        -0.4240 
     50 CA         29.8068    2.6735  -11.1100 C.3       8 UNK         0.0235 
     51 CB         29.2832    3.3176  -12.4057 C.3       8 UNK        -0.2000 
     52 C          31.3102    2.9553  -10.9375 C.2       8 UNK         0.4941 
     53 O          32.1348    2.0640  -11.1547 O.2       8 UNK        -0.5273 
     54 N          31.6311    4.2050  -10.5665 N.am      9 UNK        -0.4262 
     55 CA         32.9845    4.7567  -10.3925 C.3       9 UNK         0.0264 
     56 CB         33.6831    4.9080  -11.7612 C.3       9 UNK        -0.1955 
     57 C          33.8326    3.9664   -9.3759 C.2       9 UNK         0.5031 
     58 O          35.0008    3.6715   -9.6389 O.2       9 UNK        -0.5390 
     59 N          33.2013    3.5955   -8.2503 N.am      10 UNK        -0.4204 
     60 CA         33.7421    2.7635   -7.1652 C.3       10 UNK         0.0237 
     61 CB         34.8149    3.5394   -6.3714 C.3       10 UNK        -0.1985 
     62 C          34.2369    1.3796   -7.6411 C.2       10 UNK         0.4970 
     63 O          35.1914    0.8445   -7.0751 O.2       10 UNK        -0.4914 
     64 N          33.5857    0.8413   -8.6814 N.am      11 UNK        -0.4285 
     65 CA         33.9398   -0.3959   -9.3942 C.3       11 UNK         0.1007 
     66 C          35.2690   -0.3120  -10.2064 C.2       11 UNK         0.5703 
     67 N          35.8365    0.8658  -10.4461 N.am      11 UNK        -0.7361 
     68 O          35.7852   -1.3314  -10.6590 O.2       11 UNK        -0.4986 
     69 C69        33.8467   -1.6804   -8.5154 C.3       12 UNK        -0.0947 
     70 S70        32.2389   -1.8565   -7.6682 S.3       12 UNK        -0.2240 
     71 C71        32.7351   -1.6720   -5.9306 C.3       12 UNK         0.0194 
     72 H72        23.2636   -4.0622   -4.6537 H         1 UNK         0.0906 
     73 H73        22.0207   -5.1446   -4.0298 H         1 UNK         0.0906 
     74 H74        21.9888   -3.4305   -3.6110 H         1 UNK         0.0906 
     75 H75        25.1365   -3.7446   -3.3960 H         1 UNK         0.3140 
     76 H76        25.4941   -5.4673   -1.0594 H         1 UNK         0.1085 
     77 H77        27.2457   -5.7072   -2.5803 H         1 UNK         0.0836 
     78 H78        27.9154   -4.7912   -1.2724 H         1 UNK         0.0836 
     79 H79        29.8885   -3.5786   -2.2040 H         1 UNK         0.0731 
     80 H80        28.8737   -2.3084   -1.5579 H         1 UNK         0.0731 
     81 H81        31.2558   -3.2133   -4.2166 H         1 UNK         0.1312 
     82 H82        31.5970    0.7735   -5.7410 H         1 UNK         0.1406 
     83 H83        28.6725   -0.1242   -2.7339 H         1 UNK         0.1631 
     84 H84        30.1488    2.4913   -5.0562 H         1 UNK         0.0717 
     85 H85        29.8295    2.4151   -3.3412 H         1 UNK         0.0717 
     86 H86        27.0755    1.5310   -6.8540 H         1 UNK         0.0934 
     87 H87        28.5328    0.6781   -6.4493 H         1 UNK         0.0934 
     88 H88        27.1396   -0.6824   -4.7227 H         1 UNK         0.0739 
     89 H89        25.0479    1.0423   -5.6445 H         1 UNK         0.3093 
     90 H90        23.0984    1.0267   -4.5341 H         1 UNK         0.0818 
     91 H91        22.6147   -0.1581   -6.6925 H         1 UNK         0.0819 
     92 H92        22.0454   -1.5641   -5.8069 H         1 UNK         0.0819 
     93 H93        21.1695   -0.0352   -5.7035 H         1 UNK         0.0819 
     94 H94        21.5737   -1.1050   -3.4236 H         1 UNK         0.3041 
     95 H95        21.6865    0.1231   -0.2527 H         1 UNK         0.0784 
     96 H96        19.9657   -0.6836   -1.8887 H         1 UNK         0.0793 
     97 H97        20.7360   -2.2724   -1.9238 H         1 UNK         0.0793 
     98 H98        20.0178   -1.6671   -0.4419 H         1 UNK         0.0793 
     99 H99        22.8312   -2.6063   -0.6250 H         1 UNK         0.3024 
    100 H100       25.1996   -2.2073    1.8823 H         1 UNK         0.1171 
    101 H101       22.6026   -3.8088    2.2327 H         1 UNK         0.0786 
    102 H102       24.1402   -4.1524    3.0264 H         1 UNK         0.0786 
    103 H103       23.2716   -2.6721    3.3955 H         1 UNK         0.0786 
    104 H104       24.0037   -4.3767    0.2767 H         1 UNK         0.2977 
    105 H105       28.4045   -2.1506   -5.8481 H         1 UNK         0.3127 
    106 H106       27.0625   -3.9137   -7.5982 H         1 UNK         0.0770 
    107 H107       30.0343   -3.7040   -6.8758 H         1 UNK         0.0814 
    108 H108       29.2874   -5.0787   -7.6765 H         1 UNK         0.0814 
    109 H109       28.8185   -4.6642   -6.0363 H         1 UNK         0.0814 
    110 H110       29.2528   -1.2115   -8.3100 H         1 UNK         0.2983 
    111 H111       28.3852   -1.1017  -11.0235 H         1 UNK         0.0947 
    112 H112       30.7470   -1.2047  -12.0056 H         1 UNK         0.0806 
    113 H113       30.1758   -2.7607  -11.4314 H         1 UNK         0.0806 
    114 H114       31.3207   -1.8377  -10.4701 H         1 UNK         0.0806 
    115 H115       29.3164    0.8496  -12.0594 H         1 UNK         0.3000 
    116 H116       29.2770    3.1079  -10.2592 H         1 UNK         0.0850 
    117 H117       29.7911    2.9216  -13.2863 H         1 UNK         0.0810 
    118 H118       29.4353    4.3977  -12.4023 H         1 UNK         0.0810 
    119 H119       28.2136    3.1467  -12.5301 H         1 UNK         0.0810 
    120 H120       30.8761    4.8590  -10.4084 H         1 UNK         0.3040 
    121 H121       32.8627    5.7565   -9.9731 H         1 UNK         0.0766 
    122 H122       33.8773    3.9400  -12.2248 H         1 UNK         0.0812 
    123 H123       33.0794    5.4958  -12.4525 H         1 UNK         0.0812 
    124 H124       34.6424    5.4165  -11.6573 H         1 UNK         0.0812 
    125 H125       32.2350    3.8741   -8.1474 H         1 UNK         0.3205 
    126 H126       32.9107    2.5705   -6.4870 H         1 UNK         0.0754 
    127 H127       35.1256    2.9848   -5.4850 H         1 UNK         0.0769 
    128 H128       34.4373    4.5036   -6.0313 H         1 UNK         0.0769 
    129 H129       35.7077    3.7213   -6.9708 H         1 UNK         0.0769 
    130 H130       32.8445    1.3737   -9.1181 H         1 UNK         0.2981 
    131 H131       33.1749   -0.4850  -10.1646 H         1 UNK         0.0541 
    132 H132       36.6883    0.8982  -10.9825 H         1 UNK         0.3459 
    133 H133       35.4294    1.7271  -10.0979 H         1 UNK         0.3459 
    134 H134       34.6581   -1.7086   -7.7869 H         1 UNK         0.0612 
    135 H135       33.9747   -2.5685   -9.1361 H         1 UNK         0.0612 
    136 H136       33.5197   -0.9205   -5.8435 H         1 UNK         0.0624 
    137 H137       33.1683   -2.6106   -5.5821 H         1 UNK         0.0624 
@<TRIPOS>BOND
     1    1    2 1    
     2    1   72 1    
     3    1   73 1    
     4    1   74 1    
     5    2    3 2    
     6    2    4 am   BACKBONE|DICT|INTERRES
     7    4    5 1    
     8    4   75 1    
     9    5    6 1    
    10    5   35 1    
    11    5   76 1    
    12    6    7 1    
    13    6   77 1    
    14    6   78 1    
    15    7    8 1    
    16    8    9 1    
    17    8   79 1    
    18    8   80 1    
    19    9   10 ar   
    20    9   14 ar   
    21   10   11 ar   
    22   10   81 1    
    23   11   12 ar   
    24   11   71 1    
    25   12   13 ar   
    26   12   82 1    
    27   13   14 ar   
    28   13   15 1    
    29   14   83 1    
    30   15   16 1    
    31   15   84 1    
    32   15   85 1    
    33   16   17 1    
    34   17   18 1    
    35   17   86 1    
    36   17   87 1    
    37   18   19 1    
    38   18   37 1    
    39   18   88 1    
    40   19   20 am   BACKBONE|DICT|INTERRES
    41   19   89 1    
    42   20   21 2    
    43   20   22 1    
    44   22   23 1    
    45   22   24 1    
    46   22   90 1    
    47   23   91 1    
    48   23   92 1    
    49   23   93 1    
    50   24   25 am   BACKBONE|DICT|INTERRES
    51   24   94 1    
    52   25   26 2    
    53   25   27 1    
    54   27   28 1    
    55   27   29 1    
    56   27   95 1    
    57   28   96 1    
    58   28   97 1    
    59   28   98 1    
    60   29   30 am   BACKBONE|DICT|INTERRES
    61   29   99 1    
    62   30   31 2    
    63   30   32 1    
    64   32   33 1    
    65   32   34 1    
    66   32  100 1    
    67   33  101 1    
    68   33  102 1    
    69   33  103 1    
    70   34   35 am   BACKBONE|DICT|INTERRES
    71   34  104 1    
    72   35   36 2    
    73   37   38 2    
    74   37   39 am   BACKBONE|DICT|INTERRES
    75   39   40 1    
    76   39  105 1    
    77   40   41 1    
    78   40   42 1    
    79   40  106 1    
    80   41  107 1    
    81   41  108 1    
    82   41  109 1    
    83   42   43 2    
    84   42   44 am   BACKBONE|DICT|INTERRES
    85   44   45 1    
    86   44  110 1    
    87   45   46 1    
    88   45   47 1    
    89   45  111 1    
    90   46  112 1    
    91   46  113 1    
    92   46  114 1    
    93   47   48 2    
    94   47   49 am   BACKBONE|DICT|INTERRES
    95   49   50 1    
    96   49  115 1    
    97   50   51 1    
    98   50   52 1    
    99   50  116 1    
   100   51  117 1    
   101   51  118 1    
   102   51  119 1    
   103   52   53 2    
   104   52   54 am   BACKBONE|DICT|INTERRES
   105   54   55 1    
   106   54  120 1    
   107   55   56 1    
   108   55   57 1    
   109   55  121 1    
   110   56  122 1    
   111   56  123 1    
   112   56  124 1    
   113   57   58 2    
   114   57   59 am   BACKBONE|DICT|INTERRES
   115   59   60 1    
   116   59  125 1    
   117   60   61 1    
   118   60   62 1    
   119   60  126 1    
   120   61  127 1    
   121   61  128 1    
   122   61  129 1    
   123   62   63 2    
   124   62   64 am   BACKBONE|DICT|INTERRES
   125   64   65 1    
   126   64  130 1    
   127   65   66 1    
   128   65   69 1    
   129   65  131 1    
   130   66   67 am   BACKBONE|DICT|INTERRES
   131   66   68 2    
   132   67  132 1    
   133   67  133 1    
   134   69   70 1    
   135   69  134 1    
   136   69  135 1    
   137   70   71 1    
   138   71  136 1    
   139   71  137 1    
@<TRIPOS>SUBSTRUCTURE
     1 UNK         1 GROUP             0       ****    0 ROOT    
