@<TRIPOS>MOLECULE
3R137
137   139    1
SMALL
USER_CHARGES


@<TRIPOS>ATOM
      1 CA         26.2246   -4.7202    2.8357 C.3       0 UNK        -0.2020 
      2 C          27.2905   -3.6935    2.4842 C.2       0 UNK         0.4855 
      3 O          27.2822   -2.5897    3.0294 O.2       0 UNK        -0.5197 
      4 N          28.2098   -4.0476    1.5772 N.am      1 UNK        -0.4892 
      5 CA         29.2876   -3.1770    1.0867 C.3       1 UNK         0.0835 
      6 C6         30.4536   -4.0040    0.4823 C.3       12 UNK        -0.0855 
      7 S7         29.9658   -5.1374   -0.8733 S.3       12 UNK        -0.2931 
      8 C8         31.1557   -4.7193   -2.1917 C.3       12 UNK         0.0378 
      9 C9         30.6784   -3.5538   -3.0473 C.ar      12 UNK        -0.0802 
     10 C10        30.9606   -2.2390   -2.6681 C.ar      12 UNK        -0.0944 
     11 C11        30.4996   -1.1599   -3.4271 C.ar      12 UNK        -0.0787 
     12 C12        29.7805   -1.4097   -4.6000 C.ar      12 UNK        -0.0862 
     13 C13        29.5290   -2.7200   -5.0161 C.ar      12 UNK        -0.0733 
     14 C14        29.9656   -3.7891   -4.2278 C.ar      12 UNK        -0.0832 
     15 C15        28.8068   -2.9716   -6.3292 C.3       12 UNK         0.0240 
     16 S16        27.0040   -2.9766   -6.1073 S.3       12 UNK        -0.2522 
     17 C17        26.4453   -2.7703   -7.8409 C.3       12 UNK        -0.0967 
     18 CA         25.9122   -1.3475   -8.1563 C.3       5 UNK         0.0660 
     19 N          24.8334   -0.9813   -7.2326 N.am      5 UNK        -0.4015 
     20 C          24.1820    0.1795   -7.0919 C.2       4 UNK         0.4946 
     21 O          24.3944    1.1744   -7.7869 O.2       4 UNK        -0.5353 
     22 CA         23.1608    0.2700   -5.9364 C.3       4 UNK         0.0277 
     23 CB         21.7214    0.1095   -6.4637 C.3       4 UNK        -0.1981 
     24 N          23.4215   -0.6295   -4.7913 N.am      4 UNK        -0.4209 
     25 C          23.3855   -1.9724   -4.7561 C.2       3 UNK         0.4942 
     26 O          23.1120   -2.6676   -5.7351 O.2       3 UNK        -0.5208 
     27 CA         23.8201   -2.6417   -3.4441 C.3       3 UNK         0.0250 
     28 CB         23.9035   -4.1805   -3.5595 C.3       3 UNK        -0.1990 
     29 N          25.1075   -2.0899   -3.0139 N.am      3 UNK        -0.4232 
     30 C          25.5893   -2.1662   -1.7692 C.2       2 UNK         0.4993 
     31 O          24.9989   -2.7205   -0.8371 O.2       2 UNK        -0.5286 
     32 CA         26.9449   -1.4990   -1.5051 C.3       2 UNK         0.0209 
     33 CB         26.7364   -0.0282   -1.0877 C.3       2 UNK        -0.1931 
     34 N          27.6013   -2.2791   -0.4589 N.am      2 UNK        -0.4546 
     35 C          28.7948   -2.0827    0.1131 C.2       1 UNK         0.5154 
     36 O          29.5090   -1.1012   -0.0924 O.2       1 UNK        -0.5181 
     37 C          27.0696   -0.3308   -8.2371 C.2       5 UNK         0.5014 
     38 O          27.6882   -0.2119   -9.2957 O.2       5 UNK        -0.5248 
     39 N          27.3235    0.3997   -7.1400 N.am      6 UNK        -0.4434 
     40 CA         28.3104    1.4756   -7.0097 C.3       6 UNK         0.0363 
     41 CB         28.1617    2.1249   -5.6238 C.3       6 UNK        -0.1936 
     42 C          28.2123    2.5569   -8.0994 C.2       6 UNK         0.5081 
     43 O          29.2434    3.0874   -8.5085 O.2       6 UNK        -0.5248 
     44 N          26.9912    2.8303   -8.5815 N.am      7 UNK        -0.4718 
     45 CA         26.7185    3.7774   -9.6656 C.3       7 UNK         0.0273 
     46 CB         25.2000    3.9926   -9.7685 C.3       7 UNK        -0.1935 
     47 C          27.2944    3.3559  -11.0319 C.2       7 UNK         0.5018 
     48 O          27.5066    4.2261  -11.8776 O.2       7 UNK        -0.5186 
     49 N          27.5278    2.0508  -11.2284 N.am      8 UNK        -0.4240 
     50 CA         28.0823    1.4774  -12.4551 C.3       8 UNK         0.0235 
     51 CB         27.1606    0.3480  -12.9463 C.3       8 UNK        -0.2000 
     52 C          29.5064    0.9486  -12.2352 C.2       8 UNK         0.4941 
     53 O          30.3805    1.2071  -13.0630 O.2       8 UNK        -0.5273 
     54 N          29.7145    0.2038  -11.1413 N.am      9 UNK        -0.4262 
     55 CA         30.9601   -0.5062  -10.8446 C.3       9 UNK         0.0264 
     56 CB         30.6354   -1.7078   -9.9404 C.3       9 UNK        -0.1955 
     57 C          32.0402    0.3649  -10.1843 C.2       9 UNK         0.5031 
     58 O          33.1904   -0.0738  -10.1226 O.2       9 UNK        -0.5390 
     59 N          31.6607    1.5329   -9.6381 N.am      10 UNK        -0.4204 
     60 CA         32.5066    2.4566   -8.8618 C.3       10 UNK         0.0237 
     61 CB         33.5616    3.1206   -9.7726 C.3       10 UNK        -0.1985 
     62 C          33.1321    1.8176   -7.6010 C.2       10 UNK         0.4970 
     63 O          34.1645    2.2926   -7.1249 O.2       10 UNK        -0.4914 
     64 N          32.5026    0.7432   -7.1031 N.am      11 UNK        -0.4285 
     65 CA         32.9698   -0.1277   -6.0114 C.3       11 UNK         0.1007 
     66 C          34.2744   -0.9181   -6.3386 C.2       11 UNK         0.5703 
     67 N          34.6528   -1.0760   -7.6034 N.am      11 UNK        -0.7361 
     68 O          34.9412   -1.4259   -5.4401 O.2       11 UNK        -0.4986 
     69 C69        33.0103    0.5862   -4.6290 C.3       12 UNK        -0.0947 
     70 S70        31.4204    1.3803   -4.2123 S.3       12 UNK        -0.2240 
     71 C71        30.7457    0.2648   -2.9389 C.3       12 UNK         0.0194 
     72 H72        26.3765   -5.6629    2.3102 H         1 UNK         0.0906 
     73 H73        26.2369   -4.9235    3.9062 H         1 UNK         0.0906 
     74 H74        25.2380   -4.3401    2.5715 H         1 UNK         0.0906 
     75 H75        28.1783   -4.9669    1.1567 H         1 UNK         0.3140 
     76 H76        29.6908   -2.6408    1.9491 H         1 UNK         0.1085 
     77 H77        31.2554   -3.3421    0.1524 H         1 UNK         0.0836 
     78 H78        30.9000   -4.6146    1.2687 H         1 UNK         0.0836 
     79 H79        32.1341   -4.5018   -1.7605 H         1 UNK         0.0731 
     80 H80        31.2976   -5.6003   -2.8195 H         1 UNK         0.0731 
     81 H81        31.5139   -2.0515   -1.7589 H         1 UNK         0.1312 
     82 H82        29.4277   -0.5837   -5.1984 H         1 UNK         0.1406 
     83 H83        29.7556   -4.8043   -4.5366 H         1 UNK         0.1631 
     84 H84        29.1201   -3.9223   -6.7634 H         1 UNK         0.0717 
     85 H85        29.0867   -2.1998   -7.0461 H         1 UNK         0.0717 
     86 H86        27.2423   -3.0523   -8.5324 H         1 UNK         0.0934 
     87 H87        25.6498   -3.4971   -8.0140 H         1 UNK         0.0934 
     88 H88        25.4626   -1.3715   -9.1507 H         1 UNK         0.0739 
     89 H89        24.4950   -1.7425   -6.6514 H         1 UNK         0.3093 
     90 H90        23.2490    1.2823   -5.5384 H         1 UNK         0.0818 
     91 H91        20.9898    0.2430   -5.6669 H         1 UNK         0.0819 
     92 H92        21.5041    0.8545   -7.2304 H         1 UNK         0.0819 
     93 H93        21.5551   -0.8705   -6.9117 H         1 UNK         0.0819 
     94 H94        23.6743   -0.1561   -3.9341 H         1 UNK         0.3041 
     95 H95        23.0611   -2.3918   -2.6996 H         1 UNK         0.0784 
     96 H96        22.9534   -4.6019   -3.8904 H         1 UNK         0.0793 
     97 H97        24.6662   -4.4865   -4.2769 H         1 UNK         0.0793 
     98 H98        24.1405   -4.6445   -2.6023 H         1 UNK         0.0793 
     99 H99        25.6583   -1.6413   -3.7331 H         1 UNK         0.3024 
    100 H100       27.5598   -1.5503   -2.4064 H         1 UNK         0.1171 
    101 H101       27.6819    0.5034   -0.9867 H         1 UNK         0.0786 
    102 H102       26.1512    0.5122   -1.8327 H         1 UNK         0.0786 
    103 H103       26.2060    0.0468   -0.1376 H         1 UNK         0.0786 
    104 H104       27.0706   -3.0930   -0.1738 H         1 UNK         0.2977 
    105 H105       26.7493    0.2220   -6.3302 H         1 UNK         0.3127 
    106 H106       29.3012    1.0238   -7.0813 H         1 UNK         0.0770 
    107 H107       27.1871    2.6001   -5.5041 H         1 UNK         0.0814 
    108 H108       28.9187    2.8961   -5.4738 H         1 UNK         0.0814 
    109 H109       28.2789    1.4009   -4.8184 H         1 UNK         0.0814 
    110 H110       26.1949    2.3226   -8.2095 H         1 UNK         0.2983 
    111 H111       27.1835    4.7296   -9.4008 H         1 UNK         0.0947 
    112 H112       24.9581    4.7166  -10.5479 H         1 UNK         0.0806 
    113 H113       24.7887    4.3742   -8.8338 H         1 UNK         0.0806 
    114 H114       24.6779    3.0654  -10.0092 H         1 UNK         0.0806 
    115 H115       27.3569    1.4086  -10.4620 H         1 UNK         0.3000 
    116 H116       28.1324    2.2328  -13.2424 H         1 UNK         0.0850 
    117 H117       27.5538   -0.1103  -13.8549 H         1 UNK         0.0810 
    118 H118       26.1650    0.7258  -13.1794 H         1 UNK         0.0810 
    119 H119       27.0514   -0.4420  -12.2019 H         1 UNK         0.0810 
    120 H120       28.9370    0.0316  -10.5039 H         1 UNK         0.3040 
    121 H121       31.3775   -0.8882  -11.7789 H         1 UNK         0.0766 
    122 H122       30.2304   -1.3890   -8.9802 H         1 UNK         0.0812 
    123 H123       31.5285   -2.3009   -9.7378 H         1 UNK         0.0812 
    124 H124       29.9067   -2.3709  -10.4071 H         1 UNK         0.0812 
    125 H125       30.6883    1.8072   -9.7151 H         1 UNK         0.3205 
    126 H126       31.8494    3.2465   -8.4973 H         1 UNK         0.0754 
    127 H127       34.0946    3.9122   -9.2445 H         1 UNK         0.0769 
    128 H128       33.0985    3.5741  -10.6490 H         1 UNK         0.0769 
    129 H129       34.3061    2.4035  -10.1198 H         1 UNK         0.0769 
    130 H130       31.6699    0.4322   -7.5761 H         1 UNK         0.2981 
    131 H131       32.2137   -0.9087   -5.9376 H         1 UNK         0.0541 
    132 H132       34.1209   -0.6726   -8.3666 H         1 UNK         0.3459 
    133 H133       35.4916   -1.5976   -7.8010 H         1 UNK         0.3459 
    134 H134       33.7885    1.3503   -4.6145 H         1 UNK         0.0612 
    135 H135       33.2667   -0.1206   -3.8380 H         1 UNK         0.0612 
    136 H136       29.7997    0.6747   -2.5836 H         1 UNK         0.0624 
    137 H137       31.4208    0.2700   -2.0817 H         1 UNK         0.0624 
@<TRIPOS>BOND
     1    1    2 1    
     2    1   72 1    
     3    1   73 1    
     4    1   74 1    
     5    2    3 2    
     6    2    4 am   BACKBONE|DICT|INTERRES
     7    4    5 1    
     8    4   75 1    
     9    5    6 1    
    10    5   35 1    
    11    5   76 1    
    12    6    7 1    
    13    6   77 1    
    14    6   78 1    
    15    7    8 1    
    16    8    9 1    
    17    8   79 1    
    18    8   80 1    
    19    9   10 ar   
    20    9   14 ar   
    21   10   11 ar   
    22   10   81 1    
    23   11   12 ar   
    24   11   71 1    
    25   12   13 ar   
    26   12   82 1    
    27   13   14 ar   
    28   13   15 1    
    29   14   83 1    
    30   15   16 1    
    31   15   84 1    
    32   15   85 1    
    33   16   17 1    
    34   17   18 1    
    35   17   86 1    
    36   17   87 1    
    37   18   19 1    
    38   18   37 1    
    39   18   88 1    
    40   19   20 am   BACKBONE|DICT|INTERRES
    41   19   89 1    
    42   20   21 2    
    43   20   22 1    
    44   22   23 1    
    45   22   24 1    
    46   22   90 1    
    47   23   91 1    
    48   23   92 1    
    49   23   93 1    
    50   24   25 am   BACKBONE|DICT|INTERRES
    51   24   94 1    
    52   25   26 2    
    53   25   27 1    
    54   27   28 1    
    55   27   29 1    
    56   27   95 1    
    57   28   96 1    
    58   28   97 1    
    59   28   98 1    
    60   29   30 am   BACKBONE|DICT|INTERRES
    61   29   99 1    
    62   30   31 2    
    63   30   32 1    
    64   32   33 1    
    65   32   34 1    
    66   32  100 1    
    67   33  101 1    
    68   33  102 1    
    69   33  103 1    
    70   34   35 am   BACKBONE|DICT|INTERRES
    71   34  104 1    
    72   35   36 2    
    73   37   38 2    
    74   37   39 am   BACKBONE|DICT|INTERRES
    75   39   40 1    
    76   39  105 1    
    77   40   41 1    
    78   40   42 1    
    79   40  106 1    
    80   41  107 1    
    81   41  108 1    
    82   41  109 1    
    83   42   43 2    
    84   42   44 am   BACKBONE|DICT|INTERRES
    85   44   45 1    
    86   44  110 1    
    87   45   46 1    
    88   45   47 1    
    89   45  111 1    
    90   46  112 1    
    91   46  113 1    
    92   46  114 1    
    93   47   48 2    
    94   47   49 am   BACKBONE|DICT|INTERRES
    95   49   50 1    
    96   49  115 1    
    97   50   51 1    
    98   50   52 1    
    99   50  116 1    
   100   51  117 1    
   101   51  118 1    
   102   51  119 1    
   103   52   53 2    
   104   52   54 am   BACKBONE|DICT|INTERRES
   105   54   55 1    
   106   54  120 1    
   107   55   56 1    
   108   55   57 1    
   109   55  121 1    
   110   56  122 1    
   111   56  123 1    
   112   56  124 1    
   113   57   58 2    
   114   57   59 am   BACKBONE|DICT|INTERRES
   115   59   60 1    
   116   59  125 1    
   117   60   61 1    
   118   60   62 1    
   119   60  126 1    
   120   61  127 1    
   121   61  128 1    
   122   61  129 1    
   123   62   63 2    
   124   62   64 am   BACKBONE|DICT|INTERRES
   125   64   65 1    
   126   64  130 1    
   127   65   66 1    
   128   65   69 1    
   129   65  131 1    
   130   66   67 am   BACKBONE|DICT|INTERRES
   131   66   68 2    
   132   67  132 1    
   133   67  133 1    
   134   69   70 1    
   135   69  134 1    
   136   69  135 1    
   137   70   71 1    
   138   71  136 1    
   139   71  137 1    
@<TRIPOS>SUBSTRUCTURE
     1 UNK         1 GROUP             0       ****    0 ROOT    
