@<TRIPOS>MOLECULE
3R137
137   139    1
SMALL
USER_CHARGES


@<TRIPOS>ATOM
      1 CA         25.7329   -6.1573   -8.3143 C.3       0 UNK        -0.2020 
      2 C          25.8994   -6.2790   -6.8071 C.2       0 UNK         0.4855 
      3 O          25.2327   -7.1071   -6.1862 O.2       0 UNK        -0.5197 
      4 N          26.7803   -5.4628   -6.2115 N.am      1 UNK        -0.4892 
      5 CA         27.0493   -5.4446   -4.7636 C.3       1 UNK         0.0835 
      6 C6         28.3847   -4.7198   -4.4427 C.3       12 UNK        -0.0855 
      7 S7         29.1720   -5.3748   -2.9303 S.3       12 UNK        -0.2931 
      8 C8         30.9252   -4.9150   -3.1676 C.3       12 UNK         0.0378 
      9 C9         31.2806   -3.4485   -2.9048 C.ar      12 UNK        -0.0802 
     10 C10        32.5276   -2.9843   -3.3388 C.ar      12 UNK        -0.0944 
     11 C11        32.9156   -1.6580   -3.1279 C.ar      12 UNK        -0.0787 
     12 C12        32.0544   -0.7910   -2.4530 C.ar      12 UNK        -0.0862 
     13 C13        30.8065   -1.2345   -2.0092 C.ar      12 UNK        -0.0733 
     14 C14        30.4267   -2.5622   -2.2320 C.ar      12 UNK        -0.0832 
     15 C15        29.8737   -0.2786   -1.2793 C.3       12 UNK         0.0240 
     16 S16        28.4179    0.1676   -2.2767 S.3       12 UNK        -0.2522 
     17 C17        29.1547    1.1169   -3.6509 C.3       12 UNK        -0.0967 
     18 CA         28.2669    1.0872   -4.9179 C.3       5 UNK         0.0660 
     19 N          26.9206    1.6201   -4.6582 N.am      5 UNK        -0.4015 
     20 C          25.9091    1.7193   -5.5319 C.2       4 UNK         0.4946 
     21 O          26.0311    1.5067   -6.7398 O.2       4 UNK        -0.5353 
     22 CA         24.5296    2.0971   -4.9561 C.3       4 UNK         0.0277 
     23 CB         23.4420    2.1723   -6.0447 C.3       4 UNK        -0.1981 
     24 N          24.1065    1.1408   -3.9295 N.am      4 UNK        -0.4209 
     25 C          24.5421    1.1247   -2.6622 C.2       3 UNK         0.4942 
     26 O          25.2847    1.9900   -2.1961 O.2       3 UNK        -0.5208 
     27 CA         24.1156   -0.0594   -1.7723 C.3       3 UNK         0.0250 
     28 CB         22.9523    0.3530   -0.8556 C.3       3 UNK        -0.1990 
     29 N          23.7478   -1.2835   -2.4984 N.am      3 UNK        -0.4232 
     30 C          24.5666   -1.9863   -3.2947 C.2       2 UNK         0.4993 
     31 O          25.7210   -1.6464   -3.5588 O.2       2 UNK        -0.5286 
     32 CA         23.9765   -3.2591   -3.9283 C.3       2 UNK         0.0209 
     33 CB         22.9036   -2.9086   -4.9750 C.3       2 UNK        -0.1931 
     34 N          25.0247   -4.0512   -4.5742 N.am      2 UNK        -0.4546 
     35 C          25.8759   -4.8646   -3.9351 C.2       1 UNK         0.5154 
     36 O          25.7561   -5.1657   -2.7458 O.2       1 UNK        -0.5181 
     37 C          29.0007    1.7475   -6.1033 C.2       5 UNK         0.5014 
     38 O          29.7704    1.0677   -6.7845 O.2       5 UNK        -0.5248 
     39 N          28.7167    3.0295   -6.3725 N.am      6 UNK        -0.4434 
     40 CA         29.2295    3.7798   -7.5232 C.3       6 UNK         0.0363 
     41 CB         28.7994    5.2496   -7.3998 C.3       6 UNK        -0.1936 
     42 C          28.8065    3.2071   -8.8899 C.2       6 UNK         0.5081 
     43 O          29.5133    3.4336   -9.8715 O.2       6 UNK        -0.5248 
     44 N          27.6876    2.4722   -8.9311 N.am      7 UNK        -0.4718 
     45 CA         27.1988    1.7559  -10.1093 C.3       7 UNK         0.0273 
     46 CB         25.7520    2.1890  -10.3987 C.3       7 UNK        -0.1935 
     47 C          27.2695    0.2365   -9.8993 C.2       7 UNK         0.5018 
     48 O          27.6696   -0.4808  -10.8158 O.2       7 UNK        -0.5186 
     49 N          26.8810   -0.2299   -8.7043 N.am      8 UNK        -0.4240 
     50 CA         26.7386   -1.6473   -8.3641 C.3       8 UNK         0.0235 
     51 CB         25.7750   -1.7785   -7.1777 C.3       8 UNK        -0.2000 
     52 C          28.0616   -2.3716   -8.0658 C.2       8 UNK         0.4941 
     53 O          28.0629   -3.6032   -8.0424 O.2       8 UNK        -0.5273 
     54 N          29.1459   -1.6258   -7.8266 N.am      9 UNK        -0.4262 
     55 CA         30.4998   -2.1620   -7.6609 C.3       9 UNK         0.0264 
     56 CB         30.8684   -2.1390   -6.1703 C.3       9 UNK        -0.1955 
     57 C          31.5489   -1.3936   -8.4837 C.2       9 UNK         0.5031 
     58 O          32.6858   -1.8585   -8.5706 O.2       9 UNK        -0.5390 
     59 N          31.1685   -0.2347   -9.0468 N.am      10 UNK        -0.4204 
     60 CA         32.0285    0.7812   -9.6682 C.3       10 UNK         0.0237 
     61 CB         32.7256    0.2376  -10.9341 C.3       10 UNK        -0.1985 
     62 C          33.0069    1.4280   -8.6633 C.2       10 UNK         0.4970 
     63 O          34.0888    1.8653   -9.0602 O.2       10 UNK        -0.4914 
     64 N          32.6092    1.4797   -7.3858 N.am      11 UNK        -0.4285 
     65 CA         33.3930    2.0238   -6.2740 C.3       11 UNK         0.1007 
     66 C          32.8920    3.4525   -5.9550 C.2       11 UNK         0.5703 
     67 N          33.5439    4.4757   -6.4898 N.am      11 UNK        -0.7361 
     68 O          31.9231    3.6406   -5.2230 O.2       11 UNK        -0.4986 
     69 C69        33.3305    1.0952   -5.0338 C.3       12 UNK        -0.0947 
     70 S70        34.1638   -0.5014   -5.3184 S.3       12 UNK        -0.2240 
     71 C71        34.2663   -1.1634   -3.6255 C.3       12 UNK         0.0194 
     72 H72        26.5471   -5.5968   -8.7717 H         1 UNK         0.0906 
     73 H73        25.7122   -7.1463   -8.7717 H         1 UNK         0.0906 
     74 H74        24.7957   -5.6535   -8.5491 H         1 UNK         0.0906 
     75 H75        27.3136   -4.8095   -6.7843 H         1 UNK         0.3140 
     76 H76        27.1502   -6.4895   -4.4598 H         1 UNK         0.1085 
     77 H77        29.0880   -4.8633   -5.2648 H         1 UNK         0.0836 
     78 H78        28.2465   -3.6401   -4.3492 H         1 UNK         0.0836 
     79 H79        31.5246   -5.5291   -2.4943 H         1 UNK         0.0731 
     80 H80        31.2266   -5.1905   -4.1795 H         1 UNK         0.0731 
     81 H81        33.1978   -3.6564   -3.8577 H         1 UNK         0.1312 
     82 H82        32.3536    0.2341   -2.2823 H         1 UNK         0.1406 
     83 H83        29.4596   -2.8904   -1.8782 H         1 UNK         0.1631 
     84 H84        30.3973    0.6325   -0.9852 H         1 UNK         0.0717 
     85 H85        29.5345   -0.7474   -0.3545 H         1 UNK         0.0717 
     86 H86        29.3295    2.1418   -3.3178 H         1 UNK         0.0934 
     87 H87        30.1342    0.6959   -3.8779 H         1 UNK         0.0934 
     88 H88        28.1255    0.0406   -5.1965 H         1 UNK         0.0739 
     89 H89        26.6988    1.7824   -3.6810 H         1 UNK         0.3093 
     90 H90        24.6233    3.0881   -4.5069 H         1 UNK         0.0818 
     91 H91        22.4823    2.4773   -5.6274 H         1 UNK         0.0819 
     92 H92        23.7067    2.9019   -6.8113 H         1 UNK         0.0819 
     93 H93        23.3025    1.2126   -6.5442 H         1 UNK         0.0819 
     94 H94        23.5250    0.3758   -4.2374 H         1 UNK         0.3041 
     95 H95        24.9750   -0.3040   -1.1439 H         1 UNK         0.0784 
     96 H96        23.2060    1.2439   -0.2791 H         1 UNK         0.0793 
     97 H97        22.0501    0.5799   -1.4252 H         1 UNK         0.0793 
     98 H98        22.7110   -0.4335   -0.1402 H         1 UNK         0.0793 
     99 H99        22.8100   -1.6266   -2.3455 H         1 UNK         0.3024 
    100 H100       23.5186   -3.8567   -3.1364 H         1 UNK         0.1171 
    101 H101       22.5215   -3.8045   -5.4651 H         1 UNK         0.0786 
    102 H102       23.2884   -2.2435   -5.7478 H         1 UNK         0.0786 
    103 H103       22.0499   -2.4098   -4.5148 H         1 UNK         0.0786 
    104 H104       25.2131   -3.8525   -5.5437 H         1 UNK         0.2977 
    105 H105       28.0691    3.5121   -5.7673 H         1 UNK         0.3127 
    106 H106       30.3192    3.7387   -7.4860 H         1 UNK         0.0770 
    107 H107       29.1789    5.6976   -6.4812 H         1 UNK         0.0814 
    108 H108       27.7138    5.3548   -7.4053 H         1 UNK         0.0814 
    109 H109       29.1885    5.8407   -8.2302 H         1 UNK         0.0814 
    110 H110       27.1680    2.3278   -8.0697 H         1 UNK         0.2983 
    111 H111       27.8059    1.9938  -10.9857 H         1 UNK         0.0947 
    112 H112       25.3511    1.6609  -11.2651 H         1 UNK         0.0806 
    113 H113       25.6965    3.2559  -10.6155 H         1 UNK         0.0806 
    114 H114       25.0905    1.9854   -9.5552 H         1 UNK         0.0806 
    115 H115       26.5494    0.4330   -8.0031 H         1 UNK         0.3000 
    116 H116       26.2853   -2.1521   -9.2202 H         1 UNK         0.0850 
    117 H117       25.5117   -2.8226   -7.0179 H         1 UNK         0.0810 
    118 H118       24.8473   -1.2352   -7.3580 H         1 UNK         0.0810 
    119 H119       26.2132   -1.3972   -6.2543 H         1 UNK         0.0810 
    120 H120       29.0405   -0.6238   -7.7265 H         1 UNK         0.3040 
    121 H121       30.5381   -3.1965   -8.0088 H         1 UNK         0.0766 
    122 H122       31.8442   -2.5983   -6.0123 H         1 UNK         0.0812 
    123 H123       30.9219   -1.1243   -5.7756 H         1 UNK         0.0812 
    124 H124       30.1478   -2.6900   -5.5697 H         1 UNK         0.0812 
    125 H125       30.2149    0.0582   -8.9011 H         1 UNK         0.3205 
    126 H126       31.3624    1.5814   -9.9891 H         1 UNK         0.0754 
    127 H127       33.2232    1.0402  -11.4798 H         1 UNK         0.0769 
    128 H128       32.0087   -0.2199  -11.6158 H         1 UNK         0.0769 
    129 H129       33.4843   -0.5074  -10.6935 H         1 UNK         0.0769 
    130 H130       31.6707    1.1708   -7.1509 H         1 UNK         0.2981 
    131 H131       34.4433    2.0991   -6.5632 H         1 UNK         0.0541 
    132 H132       34.3297    4.3254   -7.1038 H         1 UNK         0.3459 
    133 H133       33.2353    5.4135   -6.2881 H         1 UNK         0.3459 
    134 H134       32.2944    0.9033   -4.7545 H         1 UNK         0.0612 
    135 H135       33.8035    1.5761   -4.1757 H         1 UNK         0.0612 
    136 H136       34.6667   -0.4017   -2.9548 H         1 UNK         0.0624 
    137 H137       34.9853   -1.9838   -3.6158 H         1 UNK         0.0624 
@<TRIPOS>BOND
     1    1    2 1    
     2    1   72 1    
     3    1   73 1    
     4    1   74 1    
     5    2    3 2    
     6    2    4 am   BACKBONE|DICT|INTERRES
     7    4    5 1    
     8    4   75 1    
     9    5    6 1    
    10    5   35 1    
    11    5   76 1    
    12    6    7 1    
    13    6   77 1    
    14    6   78 1    
    15    7    8 1    
    16    8    9 1    
    17    8   79 1    
    18    8   80 1    
    19    9   10 ar   
    20    9   14 ar   
    21   10   11 ar   
    22   10   81 1    
    23   11   12 ar   
    24   11   71 1    
    25   12   13 ar   
    26   12   82 1    
    27   13   14 ar   
    28   13   15 1    
    29   14   83 1    
    30   15   16 1    
    31   15   84 1    
    32   15   85 1    
    33   16   17 1    
    34   17   18 1    
    35   17   86 1    
    36   17   87 1    
    37   18   19 1    
    38   18   37 1    
    39   18   88 1    
    40   19   20 am   BACKBONE|DICT|INTERRES
    41   19   89 1    
    42   20   21 2    
    43   20   22 1    
    44   22   23 1    
    45   22   24 1    
    46   22   90 1    
    47   23   91 1    
    48   23   92 1    
    49   23   93 1    
    50   24   25 am   BACKBONE|DICT|INTERRES
    51   24   94 1    
    52   25   26 2    
    53   25   27 1    
    54   27   28 1    
    55   27   29 1    
    56   27   95 1    
    57   28   96 1    
    58   28   97 1    
    59   28   98 1    
    60   29   30 am   BACKBONE|DICT|INTERRES
    61   29   99 1    
    62   30   31 2    
    63   30   32 1    
    64   32   33 1    
    65   32   34 1    
    66   32  100 1    
    67   33  101 1    
    68   33  102 1    
    69   33  103 1    
    70   34   35 am   BACKBONE|DICT|INTERRES
    71   34  104 1    
    72   35   36 2    
    73   37   38 2    
    74   37   39 am   BACKBONE|DICT|INTERRES
    75   39   40 1    
    76   39  105 1    
    77   40   41 1    
    78   40   42 1    
    79   40  106 1    
    80   41  107 1    
    81   41  108 1    
    82   41  109 1    
    83   42   43 2    
    84   42   44 am   BACKBONE|DICT|INTERRES
    85   44   45 1    
    86   44  110 1    
    87   45   46 1    
    88   45   47 1    
    89   45  111 1    
    90   46  112 1    
    91   46  113 1    
    92   46  114 1    
    93   47   48 2    
    94   47   49 am   BACKBONE|DICT|INTERRES
    95   49   50 1    
    96   49  115 1    
    97   50   51 1    
    98   50   52 1    
    99   50  116 1    
   100   51  117 1    
   101   51  118 1    
   102   51  119 1    
   103   52   53 2    
   104   52   54 am   BACKBONE|DICT|INTERRES
   105   54   55 1    
   106   54  120 1    
   107   55   56 1    
   108   55   57 1    
   109   55  121 1    
   110   56  122 1    
   111   56  123 1    
   112   56  124 1    
   113   57   58 2    
   114   57   59 am   BACKBONE|DICT|INTERRES
   115   59   60 1    
   116   59  125 1    
   117   60   61 1    
   118   60   62 1    
   119   60  126 1    
   120   61  127 1    
   121   61  128 1    
   122   61  129 1    
   123   62   63 2    
   124   62   64 am   BACKBONE|DICT|INTERRES
   125   64   65 1    
   126   64  130 1    
   127   65   66 1    
   128   65   69 1    
   129   65  131 1    
   130   66   67 am   BACKBONE|DICT|INTERRES
   131   66   68 2    
   132   67  132 1    
   133   67  133 1    
   134   69   70 1    
   135   69  134 1    
   136   69  135 1    
   137   70   71 1    
   138   71  136 1    
   139   71  137 1    
@<TRIPOS>SUBSTRUCTURE
     1 UNK         1 GROUP             0       ****    0 ROOT    
