@<TRIPOS>MOLECULE
3R137
137   139    1
SMALL
USER_CHARGES


@<TRIPOS>ATOM
      1 CA         29.6467   -6.0251   -1.0914 C.3       0 UNK        -0.2020 
      2 C          28.7020   -5.1735   -0.2568 C.2       0 UNK         0.4855 
      3 O          27.8414   -5.7119    0.4389 O.2       0 UNK        -0.5197 
      4 N          28.8550   -3.8450   -0.3231 N.am      1 UNK        -0.4892 
      5 CA         28.0526   -2.8605    0.4132 C.3       1 UNK         0.0835 
      6 C6         28.8367   -1.5360    0.6254 C.3       12 UNK        -0.0855 
      7 S7         28.9870   -0.4409   -0.8348 S.3       12 UNK        -0.2931 
      8 C8         30.6807   -0.7761   -1.4390 C.3       12 UNK         0.0378 
      9 C9         30.8259   -1.9732   -2.3821 C.ar      12 UNK        -0.0802 
     10 C10        32.1116   -2.4290   -2.6911 C.ar      12 UNK        -0.0944 
     11 C11        32.3022   -3.4809   -3.5931 C.ar      12 UNK        -0.0787 
     12 C12        31.1932   -4.1142   -4.1589 C.ar      12 UNK        -0.0862 
     13 C13        29.9033   -3.6696   -3.8654 C.ar      12 UNK        -0.0733 
     14 C14        29.7280   -2.5921   -2.9931 C.ar      12 UNK        -0.0832 
     15 C15        28.6949   -4.3232   -4.5196 C.3       12 UNK         0.0240 
     16 S16        28.5108   -3.8258   -6.2605 S.3       12 UNK        -0.2522 
     17 C17        28.6075   -2.0115   -6.1232 C.3       12 UNK        -0.0967 
     18 CA         27.6808   -1.2915   -7.1193 C.3       5 UNK         0.0660 
     19 N          26.2639   -1.5168   -6.8287 N.am      5 UNK        -0.4015 
     20 C          25.2659   -1.2007   -7.6663 C.2       4 UNK         0.4946 
     21 O          25.4393   -0.7300   -8.7905 O.2       4 UNK        -0.5353 
     22 CA         23.8308   -1.3909   -7.1438 C.3       4 UNK         0.0277 
     23 CB         23.3533   -2.8305   -7.3921 C.3       4 UNK        -0.1981 
     24 N          23.6883   -1.0644   -5.7218 N.am      4 UNK        -0.4209 
     25 C          23.9509    0.1360   -5.1843 C.2       3 UNK         0.4942 
     26 O          24.2753    1.1198   -5.8487 O.2       3 UNK        -0.5208 
     27 CA         23.8823    0.2625   -3.6520 C.3       3 UNK         0.0250 
     28 CB         22.5665    0.9359   -3.2311 C.3       3 UNK        -0.1990 
     29 N          24.0354   -1.0027   -2.9224 N.am      3 UNK        -0.4232 
     30 C          25.1317   -1.7740   -2.9302 C.2       2 UNK         0.4993 
     31 O          26.1270   -1.5523   -3.6258 O.2       2 UNK        -0.5286 
     32 CA         25.0792   -3.0401   -2.0634 C.3       2 UNK         0.0209 
     33 CB         24.7994   -4.2772   -2.9337 C.3       2 UNK        -0.1931 
     34 N          26.3414   -3.2198   -1.3452 N.am      2 UNK        -0.4546 
     35 C          26.6353   -2.6393   -0.1720 C.2       1 UNK         0.5154 
     36 O          25.8303   -1.9489    0.4565 O.2       1 UNK        -0.5181 
     37 C          28.0175    0.2076   -7.1435 C.2       5 UNK         0.5014 
     38 O          28.7665    0.6336   -8.0204 O.2       5 UNK        -0.5248 
     39 N          27.4511    0.9821   -6.2061 N.am      6 UNK        -0.4434 
     40 CA         27.6172    2.4356   -6.1356 C.3       6 UNK         0.0363 
     41 CB         27.0481    2.9687   -4.8111 C.3       6 UNK        -0.1936 
     42 C          26.9855    3.1488   -7.3423 C.2       6 UNK         0.5081 
     43 O          27.6007    4.0624   -7.8907 O.2       6 UNK        -0.5248 
     44 N          25.8026    2.6827   -7.7688 N.am      7 UNK        -0.4718 
     45 CA         25.1142    3.1327   -8.9822 C.3       7 UNK         0.0273 
     46 CB         23.7050    2.5214   -9.0287 C.3       7 UNK        -0.1935 
     47 C          25.8944    2.8095  -10.2700 C.2       7 UNK         0.5018 
     48 O          25.9452    3.6471  -11.1712 O.2       7 UNK        -0.5186 
     49 N          26.5103    1.6197  -10.3228 N.am      8 UNK        -0.4240 
     50 CA         27.3866    1.1787  -11.4137 C.3       8 UNK         0.0235 
     51 CB         27.5152   -0.3530  -11.3581 C.3       8 UNK        -0.2000 
     52 C          28.7856    1.8278  -11.3956 C.2       8 UNK         0.4941 
     53 O          29.5041    1.7101  -12.3890 O.2       8 UNK        -0.5273 
     54 N          29.1550    2.4664  -10.2748 N.am      9 UNK        -0.4262 
     55 CA         30.4723    3.0244   -9.9449 C.3       9 UNK         0.0264 
     56 CB         30.8370    4.1943  -10.8836 C.3       9 UNK        -0.1955 
     57 C          31.5745    1.9472   -9.8550 C.2       9 UNK         0.5031 
     58 O          32.7215    2.2035  -10.2292 O.2       9 UNK        -0.5390 
     59 N          31.2108    0.7610   -9.3518 N.am      10 UNK        -0.4204 
     60 CA         32.1180   -0.3555   -9.0941 C.3       10 UNK         0.0237 
     61 CB         31.3270   -1.6717   -9.1682 C.3       10 UNK        -0.1985 
     62 C          32.7859   -0.1938   -7.7199 C.2       10 UNK         0.4970 
     63 O          32.1701    0.3543   -6.8027 O.2       10 UNK        -0.4914 
     64 N          34.0279   -0.6843   -7.6104 N.am      11 UNK        -0.4285 
     65 CA         34.8877   -0.6198   -6.4114 C.3       11 UNK         0.1007 
     66 C          35.3170    0.8218   -5.9915 C.2       11 UNK         0.5703 
     67 N          35.1894    1.8285   -6.8486 N.am      11 UNK        -0.7361 
     68 O          35.8125    1.0308   -4.8863 O.2       11 UNK        -0.4986 
     69 C69        34.3380   -1.4561   -5.2179 C.3       12 UNK        -0.0947 
     70 S70        34.1727   -3.2292   -5.6143 S.3       12 UNK        -0.2240 
     71 C71        33.7054   -3.9120   -3.9904 C.3       12 UNK         0.0194 
     72 H72        29.1089   -6.4799   -1.9226 H         1 UNK         0.0906 
     73 H73        30.0708   -6.8230   -0.4823 H         1 UNK         0.0906 
     74 H74        30.4718   -5.4394   -1.4966 H         1 UNK         0.0906 
     75 H75        29.5750   -3.4559   -0.9184 H         1 UNK         0.3140 
     76 H76        27.8831   -3.2780    1.4087 H         1 UNK         0.1085 
     77 H77        29.8289   -1.7508    1.0253 H         1 UNK         0.0836 
     78 H78        28.3419   -0.9534    1.4048 H         1 UNK         0.0836 
     79 H79        31.0214    0.1104   -1.9757 H         1 UNK         0.0731 
     80 H80        31.3517   -0.8904   -0.5864 H         1 UNK         0.0731 
     81 H81        32.9717   -1.9389   -2.2550 H         1 UNK         0.1312 
     82 H82        31.3351   -4.9260   -4.8595 H         1 UNK         0.1406 
     83 H83        28.7255   -2.2302   -2.8104 H         1 UNK         0.1631 
     84 H84        27.7846   -4.0615   -3.9817 H         1 UNK         0.0717 
     85 H85        28.7861   -5.4088   -4.4641 H         1 UNK         0.0717 
     86 H86        28.3503   -1.7000   -5.1113 H         1 UNK         0.0934 
     87 H87        29.6524   -1.7279   -6.2680 H         1 UNK         0.0934 
     88 H88        27.8836   -1.6836   -8.1184 H         1 UNK         0.0739 
     89 H89        26.0449   -1.8647   -5.9039 H         1 UNK         0.3093 
     90 H90        23.1848   -0.7124   -7.7049 H         1 UNK         0.0818 
     91 H91        23.4344   -3.0901   -8.4487 H         1 UNK         0.0819 
     92 H92        23.9441   -3.5567   -6.8321 H         1 UNK         0.0819 
     93 H93        22.3080   -2.9568   -7.1094 H         1 UNK         0.0819 
     94 H94        23.4129   -1.8131   -5.1039 H         1 UNK         0.3041 
     95 H95        24.7075    0.9117   -3.3514 H         1 UNK         0.0784 
     96 H96        22.4396    1.8948   -3.7362 H         1 UNK         0.0793 
     97 H97        21.7001    0.3208   -3.4781 H         1 UNK         0.0793 
     98 H98        22.5456    1.1333   -2.1591 H         1 UNK         0.0793 
     99 H99        23.2573   -1.2734   -2.3375 H         1 UNK         0.3024 
    100 H100       24.2695   -2.9468   -1.3356 H         1 UNK         0.1171 
    101 H101       23.8167   -4.2078   -3.4018 H         1 UNK         0.0786 
    102 H102       25.5287   -4.3919   -3.7352 H         1 UNK         0.0786 
    103 H103       24.8079   -5.1909   -2.3389 H         1 UNK         0.0786 
    104 H104       27.0599   -3.7591   -1.8019 H         1 UNK         0.2977 
    105 H105       26.8261    0.5591   -5.5348 H         1 UNK         0.3127 
    106 H106       28.6890    2.6463   -6.1511 H         1 UNK         0.0770 
    107 H107       25.9720    2.8131   -4.7357 H         1 UNK         0.0814 
    108 H108       27.2261    4.0408   -4.7185 H         1 UNK         0.0814 
    109 H109       27.5187    2.4874   -3.9535 H         1 UNK         0.0814 
    110 H110       25.3359    1.9703   -7.2120 H         1 UNK         0.2983 
    111 H111       25.0140    4.2186   -8.9223 H         1 UNK         0.0947 
    112 H112       23.1553    2.8736   -9.9025 H         1 UNK         0.0806 
    113 H113       23.1249    2.7954   -8.1472 H         1 UNK         0.0806 
    114 H114       23.7381    1.4328   -9.0804 H         1 UNK         0.0806 
    115 H115       26.3527    0.9568   -9.5700 H         1 UNK         0.3000 
    116 H116       26.9163    1.4477  -12.3619 H         1 UNK         0.0850 
    117 H117       28.1216   -0.7268  -12.1842 H         1 UNK         0.0810 
    118 H118       26.5406   -0.8365  -11.4271 H         1 UNK         0.0810 
    119 H119       27.9874   -0.6827  -10.4321 H         1 UNK         0.0810 
    120 H120       28.4922    2.4644   -9.5095 H         1 UNK         0.3040 
    121 H121       30.3746    3.4327   -8.9378 H         1 UNK         0.0766 
    122 H122       31.0212    3.8551  -11.9032 H         1 UNK         0.0812 
    123 H123       31.7411    4.7002  -10.5427 H         1 UNK         0.0812 
    124 H124       30.0419    4.9392  -10.9149 H         1 UNK         0.0812 
    125 H125       30.2724    0.6792   -8.9583 H         1 UNK         0.3205 
    126 H126       32.8907   -0.3733   -9.8659 H         1 UNK         0.0754 
    127 H127       31.9718   -2.5301   -8.9748 H         1 UNK         0.0769 
    128 H128       30.8854   -1.8118  -10.1551 H         1 UNK         0.0769 
    129 H129       30.5201   -1.6993   -8.4372 H         1 UNK         0.0769 
    130 H130       34.4506   -1.1184   -8.4179 H         1 UNK         0.2981 
    131 H131       35.8251   -1.0871   -6.7145 H         1 UNK         0.0541 
    132 H132       35.4834    2.7513   -6.5706 H         1 UNK         0.3459 
    133 H133       34.7926    1.6784   -7.7624 H         1 UNK         0.3459 
    134 H134       33.3712   -1.0706   -4.8925 H         1 UNK         0.0612 
    135 H135       35.0032   -1.3815   -4.3561 H         1 UNK         0.0612 
    136 H136       33.7529   -5.0008   -4.0380 H         1 UNK         0.0624 
    137 H137       34.4354   -3.6050   -3.2399 H         1 UNK         0.0624 
@<TRIPOS>BOND
     1    1    2 1    
     2    1   72 1    
     3    1   73 1    
     4    1   74 1    
     5    2    3 2    
     6    2    4 am   BACKBONE|DICT|INTERRES
     7    4    5 1    
     8    4   75 1    
     9    5    6 1    
    10    5   35 1    
    11    5   76 1    
    12    6    7 1    
    13    6   77 1    
    14    6   78 1    
    15    7    8 1    
    16    8    9 1    
    17    8   79 1    
    18    8   80 1    
    19    9   10 ar   
    20    9   14 ar   
    21   10   11 ar   
    22   10   81 1    
    23   11   12 ar   
    24   11   71 1    
    25   12   13 ar   
    26   12   82 1    
    27   13   14 ar   
    28   13   15 1    
    29   14   83 1    
    30   15   16 1    
    31   15   84 1    
    32   15   85 1    
    33   16   17 1    
    34   17   18 1    
    35   17   86 1    
    36   17   87 1    
    37   18   19 1    
    38   18   37 1    
    39   18   88 1    
    40   19   20 am   BACKBONE|DICT|INTERRES
    41   19   89 1    
    42   20   21 2    
    43   20   22 1    
    44   22   23 1    
    45   22   24 1    
    46   22   90 1    
    47   23   91 1    
    48   23   92 1    
    49   23   93 1    
    50   24   25 am   BACKBONE|DICT|INTERRES
    51   24   94 1    
    52   25   26 2    
    53   25   27 1    
    54   27   28 1    
    55   27   29 1    
    56   27   95 1    
    57   28   96 1    
    58   28   97 1    
    59   28   98 1    
    60   29   30 am   BACKBONE|DICT|INTERRES
    61   29   99 1    
    62   30   31 2    
    63   30   32 1    
    64   32   33 1    
    65   32   34 1    
    66   32  100 1    
    67   33  101 1    
    68   33  102 1    
    69   33  103 1    
    70   34   35 am   BACKBONE|DICT|INTERRES
    71   34  104 1    
    72   35   36 2    
    73   37   38 2    
    74   37   39 am   BACKBONE|DICT|INTERRES
    75   39   40 1    
    76   39  105 1    
    77   40   41 1    
    78   40   42 1    
    79   40  106 1    
    80   41  107 1    
    81   41  108 1    
    82   41  109 1    
    83   42   43 2    
    84   42   44 am   BACKBONE|DICT|INTERRES
    85   44   45 1    
    86   44  110 1    
    87   45   46 1    
    88   45   47 1    
    89   45  111 1    
    90   46  112 1    
    91   46  113 1    
    92   46  114 1    
    93   47   48 2    
    94   47   49 am   BACKBONE|DICT|INTERRES
    95   49   50 1    
    96   49  115 1    
    97   50   51 1    
    98   50   52 1    
    99   50  116 1    
   100   51  117 1    
   101   51  118 1    
   102   51  119 1    
   103   52   53 2    
   104   52   54 am   BACKBONE|DICT|INTERRES
   105   54   55 1    
   106   54  120 1    
   107   55   56 1    
   108   55   57 1    
   109   55  121 1    
   110   56  122 1    
   111   56  123 1    
   112   56  124 1    
   113   57   58 2    
   114   57   59 am   BACKBONE|DICT|INTERRES
   115   59   60 1    
   116   59  125 1    
   117   60   61 1    
   118   60   62 1    
   119   60  126 1    
   120   61  127 1    
   121   61  128 1    
   122   61  129 1    
   123   62   63 2    
   124   62   64 am   BACKBONE|DICT|INTERRES
   125   64   65 1    
   126   64  130 1    
   127   65   66 1    
   128   65   69 1    
   129   65  131 1    
   130   66   67 am   BACKBONE|DICT|INTERRES
   131   66   68 2    
   132   67  132 1    
   133   67  133 1    
   134   69   70 1    
   135   69  134 1    
   136   69  135 1    
   137   70   71 1    
   138   71  136 1    
   139   71  137 1    
@<TRIPOS>SUBSTRUCTURE
     1 UNK         1 GROUP             0       ****    0 ROOT    
