@<TRIPOS>MOLECULE
3R137
137   139    1
SMALL
USER_CHARGES


@<TRIPOS>ATOM
      1 CA         26.5165   -4.3304    1.8893 C.3       0 UNK        -0.2020 
      2 C          27.3460   -4.8754    0.7296 C.2       0 UNK         0.4855 
      3 O          27.3844   -6.0881    0.5336 O.2       0 UNK        -0.5197 
      4 N          28.0314   -4.0385   -0.0626 N.am      1 UNK        -0.4892 
      5 CA         28.0642   -2.5697    0.0027 C.3       1 UNK         0.0835 
      6 C6         29.2263   -1.9791   -0.8336 C.3       12 UNK        -0.0855 
      7 S7         30.8777   -2.4586   -0.2151 S.3       12 UNK        -0.2931 
      8 C8         31.2774   -3.9625   -1.1678 C.3       12 UNK         0.0378 
      9 C9         31.2865   -3.7227   -2.6706 C.ar      12 UNK        -0.0802 
     10 C10        32.3819   -3.1035   -3.2789 C.ar      12 UNK        -0.0944 
     11 C11        32.4078   -2.9014   -4.6622 C.ar      12 UNK        -0.0787 
     12 C12        31.3107   -3.3070   -5.4329 C.ar      12 UNK        -0.0862 
     13 C13        30.2020   -3.9177   -4.8359 C.ar      12 UNK        -0.0733 
     14 C14        30.2089   -4.1417   -3.4564 C.ar      12 UNK        -0.0832 
     15 C15        29.0208   -4.3651   -5.6911 C.3       12 UNK         0.0240 
     16 S16        27.4077   -3.8357   -5.0131 S.3       12 UNK        -0.2522 
     17 C17        26.3977   -3.7820   -6.5394 C.3       12 UNK        -0.0967 
     18 CA         26.2163   -2.3927   -7.2233 C.3       5 UNK         0.0660 
     19 N          25.0265   -1.6655   -6.7716 N.am      5 UNK        -0.4015 
     20 C          24.4521   -0.6792   -7.4803 C.2       4 UNK         0.4946 
     21 O          24.8595   -0.2963   -8.5784 O.2       4 UNK        -0.5353 
     22 CA         23.2350    0.0186   -6.8527 C.3       4 UNK         0.0277 
     23 CB         21.9729   -0.8470   -6.9992 C.3       4 UNK        -0.1981 
     24 N          23.4389    0.3638   -5.4455 N.am      4 UNK        -0.4209 
     25 C          24.3516    1.2417   -5.0049 C.2       3 UNK         0.4942 
     26 O          25.1089    1.8737   -5.7384 O.2       3 UNK        -0.5208 
     27 CA         24.4689    1.4142   -3.4825 C.3       3 UNK         0.0250 
     28 CB         23.4643    2.4623   -2.9779 C.3       3 UNK        -0.1990 
     29 N          24.3000    0.1656   -2.7318 N.am      3 UNK        -0.4232 
     30 C          25.0676   -0.9220   -2.8836 C.2       2 UNK         0.4993 
     31 O          25.9599   -1.0228   -3.7292 O.2       2 UNK        -0.5286 
     32 CA         24.7729   -2.1096   -1.9558 C.3       2 UNK         0.0209 
     33 CB         24.0879   -3.2461   -2.7323 C.3       2 UNK        -0.1931 
     34 N          26.0076   -2.6089   -1.3514 N.am      2 UNK        -0.4546 
     35 C          26.7317   -1.9359   -0.4450 C.2       1 UNK         0.5154 
     36 O          26.3785   -0.8652    0.0510 O.2       1 UNK        -0.5181 
     37 C          27.4606   -1.4850   -7.1866 C.2       5 UNK         0.5014 
     38 O          28.2383   -1.4972   -8.1404 O.2       5 UNK        -0.5248 
     39 N          27.6028   -0.6908   -6.1137 N.am      6 UNK        -0.4434 
     40 CA         28.6941    0.2640   -5.9362 C.3       6 UNK         0.0363 
     41 CB         28.6483    0.8582   -4.5212 C.3       6 UNK        -0.1936 
     42 C          28.6921    1.3694   -7.0017 C.2       6 UNK         0.5081 
     43 O          29.7618    1.7156   -7.4982 O.2       6 UNK        -0.5248 
     44 N          27.5066    1.8754   -7.3702 N.am      7 UNK        -0.4718 
     45 CA         27.3278    2.8288   -8.4673 C.3       7 UNK         0.0273 
     46 CB         25.8924    3.3776   -8.4607 C.3       7 UNK        -0.1935 
     47 C          27.6701    2.2225   -9.8371 C.2       7 UNK         0.5018 
     48 O          28.3672    2.8692  -10.6190 O.2       7 UNK        -0.5186 
     49 N          27.1998    0.9924  -10.0944 N.am      8 UNK        -0.4240 
     50 CA         27.4586    0.2510  -11.3327 C.3       8 UNK         0.0235 
     51 CB         26.5796   -1.0092  -11.3772 C.3       8 UNK        -0.2000 
     52 C          28.9414   -0.1121  -11.5213 C.2       8 UNK         0.4941 
     53 O          29.4685    0.0494  -12.6225 O.2       8 UNK        -0.5273 
     54 N          29.5880   -0.5814  -10.4464 N.am      9 UNK        -0.4262 
     55 CA         31.0053   -0.9516  -10.4215 C.3       9 UNK         0.0264 
     56 CB         31.2309   -1.9423   -9.2692 C.3       9 UNK        -0.1955 
     57 C          31.9620    0.2509  -10.2989 C.2       9 UNK         0.5031 
     58 O          33.1623    0.0724  -10.5111 O.2       9 UNK        -0.5390 
     59 N          31.4283    1.4337   -9.9565 N.am      10 UNK        -0.4204 
     60 CA         32.1333    2.6909   -9.6735 C.3       10 UNK         0.0237 
     61 CB         32.8602    3.2240  -10.9271 C.3       10 UNK        -0.1985 
     62 C          33.0427    2.5892   -8.4313 C.2       10 UNK         0.4970 
     63 O          34.1711    3.0854   -8.4435 O.2       10 UNK        -0.4914 
     64 N          32.5193    1.9495   -7.3801 N.am      11 UNK        -0.4285 
     65 CA         33.1674    1.7704   -6.0715 C.3       11 UNK         0.1007 
     66 C          32.8733    2.9285   -5.0765 C.2       11 UNK         0.5703 
     67 N          31.9505    3.8394   -5.3662 N.am      11 UNK        -0.7361 
     68 O          33.5054    3.0101   -4.0261 O.2       11 UNK        -0.4986 
     69 C69        32.8140    0.3959   -5.4419 C.3       12 UNK        -0.0947 
     70 S70        33.3012   -0.9909   -6.5186 S.3       12 UNK        -0.2240 
     71 C71        33.6546   -2.3114   -5.3159 C.3       12 UNK         0.0194 
     72 H72        27.0943   -3.6439    2.5067 H         1 UNK         0.0906 
     73 H73        25.6278   -3.8173    1.5237 H         1 UNK         0.0906 
     74 H74        26.1853   -5.1451    2.5331 H         1 UNK         0.0906 
     75 H75        28.5855   -4.4425   -0.8010 H         1 UNK         0.3140 
     76 H76        28.2258   -2.2738    1.0409 H         1 UNK         0.1085 
     77 H77        29.1930   -0.8879   -0.7975 H         1 UNK         0.0836 
     78 H78        29.1197   -2.2315   -1.8887 H         1 UNK         0.0836 
     79 H79        30.5817   -4.7602   -0.9065 H         1 UNK         0.0731 
     80 H80        32.2611   -4.3171   -0.8564 H         1 UNK         0.0731 
     81 H81        33.2232   -2.7968   -2.6722 H         1 UNK         0.1312 
     82 H82        31.3293   -3.1594   -6.5036 H         1 UNK         0.1406 
     83 H83        29.3641   -4.6347   -2.9967 H         1 UNK         0.1631 
     84 H84        29.0318   -5.4520   -5.7796 H         1 UNK         0.0717 
     85 H85        29.1306   -3.9704   -6.7025 H         1 UNK         0.0717 
     86 H86        26.8428   -4.4722   -7.2582 H         1 UNK         0.0934 
     87 H87        25.4227   -4.2166   -6.3137 H         1 UNK         0.0934 
     88 H88        26.0425   -2.6102   -8.2800 H         1 UNK         0.0739 
     89 H89        24.6856   -1.8767   -5.8454 H         1 UNK         0.3093 
     90 H90        23.0731    0.9493   -7.4013 H         1 UNK         0.0818 
     91 H91        21.0870   -0.3186   -6.6464 H         1 UNK         0.0819 
     92 H92        21.7977   -1.1052   -8.0447 H         1 UNK         0.0819 
     93 H93        22.0512   -1.7812   -6.4418 H         1 UNK         0.0819 
     94 H94        22.8586   -0.1054   -4.7659 H         1 UNK         0.3041 
     95 H95        25.4758    1.7825   -3.2754 H         1 UNK         0.0784 
     96 H96        23.5848    3.4060   -3.5121 H         1 UNK         0.0793 
     97 H97        22.4328    2.1373   -3.1193 H         1 UNK         0.0793 
     98 H98        23.6087    2.6729   -1.9180 H         1 UNK         0.0793 
     99 H99        23.5874    0.1650   -2.0159 H         1 UNK         0.3024 
    100 H100       24.1071   -1.7852   -1.1527 H         1 UNK         0.1171 
    101 H101       23.1500   -2.9081   -3.1750 H         1 UNK         0.0786 
    102 H102       24.7156   -3.6187   -3.5426 H         1 UNK         0.0786 
    103 H103       23.8521   -4.0864   -2.0791 H         1 UNK         0.0786 
    104 H104       26.3847   -3.4662   -1.7280 H         1 UNK         0.2977 
    105 H105       26.9445   -0.7844   -5.3420 H         1 UNK         0.3127 
    106 H106       29.6264   -0.2941   -6.0427 H         1 UNK         0.0770 
    107 H107       27.7205    1.4031   -4.3448 H         1 UNK         0.0814 
    108 H108       29.4739    1.5532   -4.3623 H         1 UNK         0.0814 
    109 H109       28.7275    0.0782   -3.7633 H         1 UNK         0.0814 
    110 H110       26.6684    1.5957   -6.8669 H         1 UNK         0.2983 
    111 H111       28.0107    3.6643   -8.2974 H         1 UNK         0.0947 
    112 H112       25.7377    4.0817   -9.2794 H         1 UNK         0.0806 
    113 H113       25.6772    3.9081   -7.5331 H         1 UNK         0.0806 
    114 H114       25.1547    2.5813   -8.5681 H         1 UNK         0.0806 
    115 H115       26.6063    0.5408   -9.4055 H         1 UNK         0.3000 
    116 H116       27.1696    0.8936  -12.1672 H         1 UNK         0.0850 
    117 H117       26.7970   -1.6830  -10.5480 H         1 UNK         0.0810 
    118 H118       26.7399   -1.5655  -12.3018 H         1 UNK         0.0810 
    119 H119       25.5205   -0.7550  -11.3308 H         1 UNK         0.0810 
    120 H120       29.0615   -0.7480   -9.5886 H         1 UNK         0.3040 
    121 H121       31.2474   -1.4617  -11.3563 H         1 UNK         0.0766 
    122 H122       30.9784   -1.4933   -8.3081 H         1 UNK         0.0812 
    123 H123       32.2727   -2.2617   -9.2207 H         1 UNK         0.0812 
    124 H124       30.6207   -2.8375   -9.3888 H         1 UNK         0.0812 
    125 H125       30.4345    1.4508   -9.7653 H         1 UNK         0.3205 
    126 H126       31.3568    3.4134   -9.4173 H         1 UNK         0.0754 
    127 H127       33.2609    4.2227  -10.7496 H         1 UNK         0.0769 
    128 H128       32.1817    3.2939  -11.7774 H         1 UNK         0.0769 
    129 H129       33.6963    2.5865  -11.2157 H         1 UNK         0.0769 
    130 H130       31.5486    1.6477   -7.4412 H         1 UNK         0.2981 
    131 H131       34.2482    1.7837   -6.2235 H         1 UNK         0.0541 
    132 H132       31.4207    3.7744   -6.2205 H         1 UNK         0.3459 
    133 H133       31.7758    4.5894   -4.7164 H         1 UNK         0.3459 
    134 H134       31.7449    0.3226   -5.2415 H         1 UNK         0.0612 
    135 H135       33.3158    0.2785   -4.4797 H         1 UNK         0.0612 
    136 H136       34.3488   -1.9294   -4.5658 H         1 UNK         0.0624 
    137 H137       34.1784   -3.1145   -5.8353 H         1 UNK         0.0624 
@<TRIPOS>BOND
     1    1    2 1    
     2    1   72 1    
     3    1   73 1    
     4    1   74 1    
     5    2    3 2    
     6    2    4 am   BACKBONE|DICT|INTERRES
     7    4    5 1    
     8    4   75 1    
     9    5    6 1    
    10    5   35 1    
    11    5   76 1    
    12    6    7 1    
    13    6   77 1    
    14    6   78 1    
    15    7    8 1    
    16    8    9 1    
    17    8   79 1    
    18    8   80 1    
    19    9   10 ar   
    20    9   14 ar   
    21   10   11 ar   
    22   10   81 1    
    23   11   12 ar   
    24   11   71 1    
    25   12   13 ar   
    26   12   82 1    
    27   13   14 ar   
    28   13   15 1    
    29   14   83 1    
    30   15   16 1    
    31   15   84 1    
    32   15   85 1    
    33   16   17 1    
    34   17   18 1    
    35   17   86 1    
    36   17   87 1    
    37   18   19 1    
    38   18   37 1    
    39   18   88 1    
    40   19   20 am   BACKBONE|DICT|INTERRES
    41   19   89 1    
    42   20   21 2    
    43   20   22 1    
    44   22   23 1    
    45   22   24 1    
    46   22   90 1    
    47   23   91 1    
    48   23   92 1    
    49   23   93 1    
    50   24   25 am   BACKBONE|DICT|INTERRES
    51   24   94 1    
    52   25   26 2    
    53   25   27 1    
    54   27   28 1    
    55   27   29 1    
    56   27   95 1    
    57   28   96 1    
    58   28   97 1    
    59   28   98 1    
    60   29   30 am   BACKBONE|DICT|INTERRES
    61   29   99 1    
    62   30   31 2    
    63   30   32 1    
    64   32   33 1    
    65   32   34 1    
    66   32  100 1    
    67   33  101 1    
    68   33  102 1    
    69   33  103 1    
    70   34   35 am   BACKBONE|DICT|INTERRES
    71   34  104 1    
    72   35   36 2    
    73   37   38 2    
    74   37   39 am   BACKBONE|DICT|INTERRES
    75   39   40 1    
    76   39  105 1    
    77   40   41 1    
    78   40   42 1    
    79   40  106 1    
    80   41  107 1    
    81   41  108 1    
    82   41  109 1    
    83   42   43 2    
    84   42   44 am   BACKBONE|DICT|INTERRES
    85   44   45 1    
    86   44  110 1    
    87   45   46 1    
    88   45   47 1    
    89   45  111 1    
    90   46  112 1    
    91   46  113 1    
    92   46  114 1    
    93   47   48 2    
    94   47   49 am   BACKBONE|DICT|INTERRES
    95   49   50 1    
    96   49  115 1    
    97   50   51 1    
    98   50   52 1    
    99   50  116 1    
   100   51  117 1    
   101   51  118 1    
   102   51  119 1    
   103   52   53 2    
   104   52   54 am   BACKBONE|DICT|INTERRES
   105   54   55 1    
   106   54  120 1    
   107   55   56 1    
   108   55   57 1    
   109   55  121 1    
   110   56  122 1    
   111   56  123 1    
   112   56  124 1    
   113   57   58 2    
   114   57   59 am   BACKBONE|DICT|INTERRES
   115   59   60 1    
   116   59  125 1    
   117   60   61 1    
   118   60   62 1    
   119   60  126 1    
   120   61  127 1    
   121   61  128 1    
   122   61  129 1    
   123   62   63 2    
   124   62   64 am   BACKBONE|DICT|INTERRES
   125   64   65 1    
   126   64  130 1    
   127   65   66 1    
   128   65   69 1    
   129   65  131 1    
   130   66   67 am   BACKBONE|DICT|INTERRES
   131   66   68 2    
   132   67  132 1    
   133   67  133 1    
   134   69   70 1    
   135   69  134 1    
   136   69  135 1    
   137   70   71 1    
   138   71  136 1    
   139   71  137 1    
@<TRIPOS>SUBSTRUCTURE
     1 UNK         1 GROUP             0       ****    0 ROOT    
