@<TRIPOS>MOLECULE
3R137
137   139    1
SMALL
USER_CHARGES


@<TRIPOS>ATOM
      1 CA         27.2082   -8.2299   -5.3997 C.3       0 UNK        -0.2020 
      2 C          27.1638   -6.9924   -4.5165 C.2       0 UNK         0.4855 
      3 O          26.8757   -7.0985   -3.3233 O.2       0 UNK        -0.5197 
      4 N          27.4358   -5.8138   -5.0899 N.am      1 UNK        -0.4892 
      5 CA         27.4609   -4.5140   -4.4057 C.3       1 UNK         0.0835 
      6 C6         28.4006   -3.5123   -5.1213 C.3       12 UNK        -0.0855 
      7 S7         30.1281   -4.0957   -5.2114 S.3       12 UNK        -0.2931 
      8 C8         30.7426   -3.7484   -3.5277 C.3       12 UNK         0.0378 
      9 C9         30.6884   -2.2678   -3.1765 C.ar      12 UNK        -0.0802 
     10 C10        31.4898   -1.3577   -3.8700 C.ar      12 UNK        -0.0944 
     11 C11        31.4415    0.0056   -3.5707 C.ar      12 UNK        -0.0787 
     12 C12        30.6034    0.4555   -2.5483 C.ar      12 UNK        -0.0862 
     13 C13        29.7799   -0.4413   -1.8589 C.ar      12 UNK        -0.0733 
     14 C14        29.8336   -1.8042   -2.1699 C.ar      12 UNK        -0.0832 
     15 C15        28.8040    0.0716   -0.8066 C.3       12 UNK         0.0240 
     16 S16        27.1012    0.2104   -1.4549 S.3       12 UNK        -0.2522 
     17 C17        27.3399    1.2881   -2.9080 C.3       12 UNK        -0.0967 
     18 CA         27.3771    0.4385   -4.2137 C.3       5 UNK         0.0660 
     19 N          26.0374    0.0528   -4.6710 N.am      5 UNK        -0.4015 
     20 C          25.1394    0.8780   -5.2308 C.2       4 UNK         0.4946 
     21 O          25.3334    2.0798   -5.4256 O.2       4 UNK        -0.5353 
     22 CA         23.7946    0.2636   -5.6406 C.3       4 UNK         0.0277 
     23 CB         23.9402   -0.5748   -6.9221 C.3       4 UNK        -0.1981 
     24 N          23.2076   -0.5549   -4.5801 N.am      4 UNK        -0.4209 
     25 C          22.7152   -0.0843   -3.4229 C.2       3 UNK         0.4942 
     26 O          22.6945    1.1107   -3.1259 O.2       3 UNK        -0.5208 
     27 CA         22.1098   -1.1055   -2.4389 C.3       3 UNK         0.0250 
     28 CB         20.5824   -0.9397   -2.3609 C.3       3 UNK        -0.1990 
     29 N          22.4166   -2.4893   -2.8088 N.am      3 UNK        -0.4232 
     30 C          23.5559   -3.1213   -2.5010 C.2       2 UNK         0.4993 
     31 O          24.4032   -2.6621   -1.7325 O.2       2 UNK        -0.5286 
     32 CA         23.7942   -4.4919   -3.1683 C.3       2 UNK         0.0209 
     33 CB         22.9340   -4.7347   -4.4309 C.3       2 UNK        -0.1931 
     34 N          25.2075   -4.7245   -3.4856 N.am      2 UNK        -0.4546 
     35 C          26.0314   -3.9575   -4.2159 C.2       1 UNK         0.5154 
     36 O          25.7014   -2.8881   -4.7391 O.2       1 UNK        -0.5181 
     37 C          28.1843    1.0504   -5.3800 C.2       5 UNK         0.5014 
     38 O          28.4093    0.3559   -6.3719 O.2       5 UNK        -0.5248 
     39 N          28.5605    2.3339   -5.2823 N.am      6 UNK        -0.4434 
     40 CA         29.2968    3.0711   -6.3133 C.3       6 UNK         0.0363 
     41 CB         29.6951    4.4495   -5.7639 C.3       6 UNK        -0.1936 
     42 C          28.5439    3.2152   -7.6504 C.2       6 UNK         0.5081 
     43 O          29.1917    3.4018   -8.6804 O.2       6 UNK        -0.5248 
     44 N          27.2069    3.0848   -7.6431 N.am      7 UNK        -0.4718 
     45 CA         26.3855    3.0532   -8.8596 C.3       7 UNK         0.0273 
     46 CB         24.9044    3.2458   -8.4976 C.3       7 UNK        -0.1935 
     47 C          26.5853    1.7738   -9.6962 C.2       7 UNK         0.5018 
     48 O          26.2564    1.7825  -10.8825 O.2       7 UNK        -0.5186 
     49 N          27.1464    0.7171   -9.0887 N.am      8 UNK        -0.4240 
     50 CA         27.5747   -0.5095   -9.7645 C.3       8 UNK         0.0235 
     51 CB         27.2626   -1.7138   -8.8570 C.3       8 UNK        -0.2000 
     52 C          29.0687   -0.4688  -10.1501 C.2       8 UNK         0.4941 
     53 O          29.6117   -1.5112  -10.5192 O.2       8 UNK        -0.5273 
     54 N          29.7088    0.7102  -10.0602 N.am      9 UNK        -0.4262 
     55 CA         31.1410    0.9651  -10.2401 C.3       9 UNK         0.0264 
     56 CB         31.6102    0.6448  -11.6789 C.3       9 UNK        -0.1955 
     57 C          31.9431    0.2746   -9.1247 C.2       9 UNK         0.5031 
     58 O          31.8079    0.6838   -7.9714 O.2       9 UNK        -0.5390 
     59 N          32.7486   -0.7393   -9.4735 N.am      10 UNK        -0.4204 
     60 CA         33.5667   -1.6051   -8.6099 C.3       10 UNK         0.0237 
     61 CB         32.6902   -2.4036   -7.6233 C.3       10 UNK        -0.1985 
     62 C          34.7239   -0.8899   -7.8876 C.2       10 UNK         0.4970 
     63 O          35.8707   -1.3184   -8.0248 O.2       10 UNK        -0.4914 
     64 N          34.4139    0.1736   -7.1411 N.am      11 UNK        -0.4285 
     65 CA         35.3826    1.0485   -6.4675 C.3       11 UNK         0.1007 
     66 C          36.1545    1.9416   -7.4766 C.2       11 UNK         0.5703 
     67 N          37.3981    2.2871   -7.1718 N.am      11 UNK        -0.7361 
     68 O          35.6287    2.3537   -8.5098 O.2       11 UNK        -0.4986 
     69 C69        34.7078    1.9114   -5.3693 C.3       12 UNK        -0.0947 
     70 S70        34.0240    0.9009   -4.0131 S.3       12 UNK        -0.2240 
     71 C71        32.2511    0.9914   -4.3953 C.3       12 UNK         0.0194 
     72 H72        27.9389   -8.9398   -5.0131 H         1 UNK         0.0906 
     73 H73        26.2334   -8.7167   -5.4125 H         1 UNK         0.0906 
     74 H74        27.4808   -7.9886   -6.4270 H         1 UNK         0.0906 
     75 H75        27.6561   -5.7833   -6.0754 H         1 UNK         0.3140 
     76 H76        27.8564   -4.6634   -3.3988 H         1 UNK         0.1085 
     77 H77        28.0529   -3.3267   -6.1388 H         1 UNK         0.0836 
     78 H78        28.3871   -2.5446   -4.6245 H         1 UNK         0.0836 
     79 H79        30.1786   -4.3422   -2.8073 H         1 UNK         0.0731 
     80 H80        31.7761   -4.0901   -3.4568 H         1 UNK         0.0731 
     81 H81        32.1416   -1.7102   -4.6566 H         1 UNK         0.1312 
     82 H82        30.5657    1.5108   -2.3153 H         1 UNK         0.1406 
     83 H83        29.1948   -2.4972   -1.6392 H         1 UNK         0.1631 
     84 H84        29.1236    1.0439   -0.4283 H         1 UNK         0.0717 
     85 H85        28.8022   -0.6023    0.0513 H         1 UNK         0.0717 
     86 H86        26.5343    2.0238   -2.9362 H         1 UNK         0.0934 
     87 H87        28.2527    1.8606   -2.7491 H         1 UNK         0.0934 
     88 H88        27.8967   -0.4911   -3.9916 H         1 UNK         0.0739 
     89 H89        25.8148   -0.9369   -4.6022 H         1 UNK         0.3093 
     90 H90        23.1074    1.0863   -5.8505 H         1 UNK         0.0818 
     91 H91        22.9697   -0.9118   -7.2864 H         1 UNK         0.0819 
     92 H92        24.4015    0.0041   -7.7229 H         1 UNK         0.0819 
     93 H93        24.5608   -1.4570   -6.7618 H         1 UNK         0.0819 
     94 H94        23.2182   -1.5536   -4.7230 H         1 UNK         0.3041 
     95 H95        22.5265   -0.8945   -1.4515 H         1 UNK         0.0784 
     96 H96        20.3145    0.0714   -2.0506 H         1 UNK         0.0793 
     97 H97        20.1050   -1.1214   -3.3247 H         1 UNK         0.0793 
     98 H98        20.1455   -1.6250   -1.6342 H         1 UNK         0.0793 
     99 H99        21.7574   -2.9517   -3.4190 H         1 UNK         0.3024 
    100 H100       23.5178   -5.2404   -2.4238 H         1 UNK         0.1171 
    101 H101       23.1635   -5.7027   -4.8770 H         1 UNK         0.0786 
    102 H102       23.1058   -3.9756   -5.1952 H         1 UNK         0.0786 
    103 H103       21.8685   -4.7457   -4.1986 H         1 UNK         0.0786 
    104 H104       25.6044   -5.5877   -3.1246 H         1 UNK         0.2977 
    105 H105       28.2812    2.8595   -4.4674 H         1 UNK         0.3127 
    106 H106       30.2107    2.5107   -6.5238 H         1 UNK         0.0770 
    107 H107       28.8213    5.0509   -5.5098 H         1 UNK         0.0814 
    108 H108       30.2729    5.0097   -6.5005 H         1 UNK         0.0814 
    109 H109       30.3150    4.3585   -4.8718 H         1 UNK         0.0814 
    110 H110       26.7290    2.9045   -6.7651 H         1 UNK         0.2983 
    111 H111       26.6872    3.8952   -9.4869 H         1 UNK         0.0947 
    112 H112       24.2932    3.3306   -9.3972 H         1 UNK         0.0806 
    113 H113       24.7511    4.1546   -7.9155 H         1 UNK         0.0806 
    114 H114       24.5135    2.4086   -7.9215 H         1 UNK         0.0806 
    115 H115       27.4253    0.7980   -8.1149 H         1 UNK         0.3000 
    116 H116       27.0117   -0.6367  -10.6914 H         1 UNK         0.0850 
    117 H117       27.5013   -2.6544   -9.3548 H         1 UNK         0.0810 
    118 H118       26.2063   -1.7505   -8.5937 H         1 UNK         0.0810 
    119 H119       27.8399   -1.6811   -7.9331 H         1 UNK         0.0810 
    120 H120       29.1912    1.5031   -9.6993 H         1 UNK         0.3040 
    121 H121       31.2781    2.0368  -10.0874 H         1 UNK         0.0766 
    122 H122       32.6598    0.9088  -11.8154 H         1 UNK         0.0812 
    123 H123       31.0416    1.2222  -12.4080 H         1 UNK         0.0812 
    124 H124       31.4969   -0.4077  -11.9388 H         1 UNK         0.0812 
    125 H125       32.7819   -0.9692  -10.4570 H         1 UNK         0.3205 
    126 H126       34.0293   -2.3301   -9.2817 H         1 UNK         0.0754 
    127 H127       33.2971   -3.0583   -6.9966 H         1 UNK         0.0769 
    128 H128       31.9749   -3.0332   -8.1527 H         1 UNK         0.0769 
    129 H129       32.1225   -1.7520   -6.9597 H         1 UNK         0.0769 
    130 H130       33.4464    0.4869   -7.1623 H         1 UNK         0.2981 
    131 H131       36.1160    0.4028   -5.9798 H         1 UNK         0.0541 
    132 H132       37.9116    2.8780   -7.8069 H         1 UNK         0.3459 
    133 H133       37.8358    1.9658   -6.3221 H         1 UNK         0.3459 
    134 H134       33.9256    2.5414   -5.7976 H         1 UNK         0.0612 
    135 H135       35.4335    2.5931   -4.9219 H         1 UNK         0.0612 
    136 H136       31.8999    2.0126   -4.2392 H         1 UNK         0.0624 
    137 H137       32.0943    0.7703   -5.4494 H         1 UNK         0.0624 
@<TRIPOS>BOND
     1    1    2 1    
     2    1   72 1    
     3    1   73 1    
     4    1   74 1    
     5    2    3 2    
     6    2    4 am   BACKBONE|DICT|INTERRES
     7    4    5 1    
     8    4   75 1    
     9    5    6 1    
    10    5   35 1    
    11    5   76 1    
    12    6    7 1    
    13    6   77 1    
    14    6   78 1    
    15    7    8 1    
    16    8    9 1    
    17    8   79 1    
    18    8   80 1    
    19    9   10 ar   
    20    9   14 ar   
    21   10   11 ar   
    22   10   81 1    
    23   11   12 ar   
    24   11   71 1    
    25   12   13 ar   
    26   12   82 1    
    27   13   14 ar   
    28   13   15 1    
    29   14   83 1    
    30   15   16 1    
    31   15   84 1    
    32   15   85 1    
    33   16   17 1    
    34   17   18 1    
    35   17   86 1    
    36   17   87 1    
    37   18   19 1    
    38   18   37 1    
    39   18   88 1    
    40   19   20 am   BACKBONE|DICT|INTERRES
    41   19   89 1    
    42   20   21 2    
    43   20   22 1    
    44   22   23 1    
    45   22   24 1    
    46   22   90 1    
    47   23   91 1    
    48   23   92 1    
    49   23   93 1    
    50   24   25 am   BACKBONE|DICT|INTERRES
    51   24   94 1    
    52   25   26 2    
    53   25   27 1    
    54   27   28 1    
    55   27   29 1    
    56   27   95 1    
    57   28   96 1    
    58   28   97 1    
    59   28   98 1    
    60   29   30 am   BACKBONE|DICT|INTERRES
    61   29   99 1    
    62   30   31 2    
    63   30   32 1    
    64   32   33 1    
    65   32   34 1    
    66   32  100 1    
    67   33  101 1    
    68   33  102 1    
    69   33  103 1    
    70   34   35 am   BACKBONE|DICT|INTERRES
    71   34  104 1    
    72   35   36 2    
    73   37   38 2    
    74   37   39 am   BACKBONE|DICT|INTERRES
    75   39   40 1    
    76   39  105 1    
    77   40   41 1    
    78   40   42 1    
    79   40  106 1    
    80   41  107 1    
    81   41  108 1    
    82   41  109 1    
    83   42   43 2    
    84   42   44 am   BACKBONE|DICT|INTERRES
    85   44   45 1    
    86   44  110 1    
    87   45   46 1    
    88   45   47 1    
    89   45  111 1    
    90   46  112 1    
    91   46  113 1    
    92   46  114 1    
    93   47   48 2    
    94   47   49 am   BACKBONE|DICT|INTERRES
    95   49   50 1    
    96   49  115 1    
    97   50   51 1    
    98   50   52 1    
    99   50  116 1    
   100   51  117 1    
   101   51  118 1    
   102   51  119 1    
   103   52   53 2    
   104   52   54 am   BACKBONE|DICT|INTERRES
   105   54   55 1    
   106   54  120 1    
   107   55   56 1    
   108   55   57 1    
   109   55  121 1    
   110   56  122 1    
   111   56  123 1    
   112   56  124 1    
   113   57   58 2    
   114   57   59 am   BACKBONE|DICT|INTERRES
   115   59   60 1    
   116   59  125 1    
   117   60   61 1    
   118   60   62 1    
   119   60  126 1    
   120   61  127 1    
   121   61  128 1    
   122   61  129 1    
   123   62   63 2    
   124   62   64 am   BACKBONE|DICT|INTERRES
   125   64   65 1    
   126   64  130 1    
   127   65   66 1    
   128   65   69 1    
   129   65  131 1    
   130   66   67 am   BACKBONE|DICT|INTERRES
   131   66   68 2    
   132   67  132 1    
   133   67  133 1    
   134   69   70 1    
   135   69  134 1    
   136   69  135 1    
   137   70   71 1    
   138   71  136 1    
   139   71  137 1    
@<TRIPOS>SUBSTRUCTURE
     1 UNK         1 GROUP             0       ****    0 ROOT    
