@<TRIPOS>MOLECULE
3R137
137   139    1
SMALL
USER_CHARGES


@<TRIPOS>ATOM
      1 CA         25.0913   -1.0280   -7.0659 C.3       0 UNK        -0.2020 
      2 C          25.0659   -2.3864   -6.3893 C.2       0 UNK         0.4855 
      3 O          24.0479   -3.0752   -6.4558 O.2       0 UNK        -0.5197 
      4 N          26.1725   -2.7706   -5.7382 N.am      1 UNK        -0.4892 
      5 CA         26.3661   -4.0316   -5.0113 C.3       1 UNK         0.0835 
      6 C6         27.8069   -4.1480   -4.4516 C.3       12 UNK        -0.0855 
      7 S7         29.1066   -4.0908   -5.7287 S.3       12 UNK        -0.2931 
      8 C8         30.6144   -4.0811   -4.7007 C.3       12 UNK         0.0378 
      9 C9         30.8792   -2.7217   -4.0628 C.ar      12 UNK        -0.0802 
     10 C10        31.6481   -1.7671   -4.7348 C.ar      12 UNK        -0.0944 
     11 C11        31.9133   -0.5256   -4.1483 C.ar      12 UNK        -0.0787 
     12 C12        31.3765   -0.2270   -2.8922 C.ar      12 UNK        -0.0862 
     13 C13        30.5961   -1.1677   -2.2140 C.ar      12 UNK        -0.0733 
     14 C14        30.3769   -2.4228   -2.7924 C.ar      12 UNK        -0.0832 
     15 C15        29.9980   -0.8310   -0.8533 C.3       12 UNK         0.0240 
     16 S16        28.5059    0.2147   -0.9815 S.3       12 UNK        -0.2522 
     17 C17        27.3419   -0.8837   -1.8675 C.3       12 UNK        -0.0967 
     18 CA         26.7277   -0.3063   -3.1711 C.3       5 UNK         0.0660 
     19 N          25.6376    0.6357   -2.8912 N.am      5 UNK        -0.4015 
     20 C          24.8949    1.2761   -3.8041 C.2       4 UNK         0.4946 
     21 O          25.2161    1.4384   -4.9807 O.2       4 UNK        -0.5353 
     22 CA         23.4907    1.7059   -3.3542 C.3       4 UNK         0.0277 
     23 CB         23.0779    3.0505   -3.9792 C.3       4 UNK        -0.1981 
     24 N          22.5386    0.6681   -3.7627 N.am      4 UNK        -0.4209 
     25 C          22.4586   -0.5537   -3.2136 C.2       3 UNK         0.4942 
     26 O          23.0599   -0.8614   -2.1824 O.2       3 UNK        -0.5208 
     27 CA         21.5773   -1.6031   -3.9244 C.3       3 UNK         0.0250 
     28 CB         21.1459   -1.2005   -5.3501 C.3       3 UNK        -0.1990 
     29 N          22.2741   -2.8916   -3.9885 N.am      3 UNK        -0.4232 
     30 C          22.2239   -3.8413   -3.0421 C.2       2 UNK         0.4993 
     31 O          21.5026   -3.7764   -2.0450 O.2       2 UNK        -0.5286 
     32 CA         23.1047   -5.0918   -3.2344 C.3       2 UNK         0.0209 
     33 CB         22.2567   -6.2756   -3.7292 C.3       2 UNK        -0.1931 
     34 N          24.2266   -4.8922   -4.1566 N.am      2 UNK        -0.4546 
     35 C          25.3315   -4.1896   -3.8733 C.2       1 UNK         0.5154 
     36 O          25.5409   -3.6624   -2.7793 O.2       1 UNK        -0.5181 
     37 C          27.7703    0.1585   -4.2129 C.2       5 UNK         0.5014 
     38 O          28.0979   -0.6026   -5.1260 O.2       5 UNK        -0.5248 
     39 N          28.2111    1.4178   -4.0931 N.am      6 UNK        -0.4434 
     40 CA         29.2172    2.0433   -4.9502 C.3       6 UNK         0.0363 
     41 CB         29.7157    3.3344   -4.2832 C.3       6 UNK        -0.1936 
     42 C          28.7659    2.3156   -6.3948 C.2       6 UNK         0.5081 
     43 O          29.6304    2.5035   -7.2523 O.2       6 UNK        -0.5248 
     44 N          27.4514    2.3063   -6.6713 N.am      7 UNK        -0.4718 
     45 CA         26.8796    2.5615   -8.0027 C.3       7 UNK         0.0273 
     46 CB         25.3570    2.7416   -7.8891 C.3       7 UNK        -0.1935 
     47 C          27.2303    1.4965   -9.0611 C.2       7 UNK         0.5018 
     48 O          27.0134    1.7367  -10.2491 O.2       7 UNK        -0.5186 
     49 N          27.7932    0.3602   -8.6240 N.am      8 UNK        -0.4240 
     50 CA         28.3925   -0.6664   -9.4766 C.3       8 UNK         0.0235 
     51 CB         28.6694   -1.9178   -8.6283 C.3       8 UNK        -0.2000 
     52 C          29.6834   -0.1956  -10.1753 C.2       8 UNK         0.4941 
     53 O          30.0450   -0.7737  -11.2003 O.2       8 UNK        -0.5273 
     54 N          30.3535    0.8266   -9.6131 N.am      9 UNK        -0.4262 
     55 CA         31.5654    1.4871  -10.1187 C.3       9 UNK         0.0264 
     56 CB         31.2672    2.2329  -11.4370 C.3       9 UNK        -0.1955 
     57 C          32.8024    0.5698  -10.2241 C.2       9 UNK         0.5031 
     58 O          33.7173    0.8672  -10.9943 O.2       9 UNK        -0.5390 
     59 N          32.8254   -0.5177   -9.4403 N.am      10 UNK        -0.4204 
     60 CA         33.9325   -1.4775   -9.3794 C.3       10 UNK         0.0237 
     61 CB         33.4292   -2.7873   -8.7500 C.3       10 UNK        -0.1985 
     62 C          35.1563   -0.9446   -8.6113 C.2       10 UNK         0.4970 
     63 O          36.2698   -1.4106   -8.8556 O.2       10 UNK        -0.4914 
     64 N          34.9269    0.0022   -7.6939 N.am      11 UNK        -0.4285 
     65 CA         35.9553    0.6724   -6.8894 C.3       11 UNK         0.1007 
     66 C          36.7961    1.6636   -7.7370 C.2       11 UNK         0.5703 
     67 N          38.0999    1.7312   -7.5047 N.am      11 UNK        -0.7361 
     68 O          36.2702    2.4007   -8.5690 O.2       11 UNK        -0.4986 
     69 C69        35.3293    1.3870   -5.6640 C.3       12 UNK        -0.0947 
     70 S70        34.5373    0.2126   -4.5158 S.3       12 UNK        -0.2240 
     71 C71        32.7777    0.4914   -4.8754 C.3       12 UNK         0.0194 
     72 H72        25.1376   -1.1443   -8.1482 H         1 UNK         0.0906 
     73 H73        24.1925   -0.4653   -6.8186 H         1 UNK         0.0906 
     74 H74        25.9473   -0.4389   -6.7445 H         1 UNK         0.0906 
     75 H75        26.9697   -2.1395   -5.7009 H         1 UNK         0.3140 
     76 H76        26.2168   -4.8471   -5.7221 H         1 UNK         0.1085 
     77 H77        27.9905   -3.3360   -3.7519 H         1 UNK         0.0836 
     78 H78        27.9268   -5.0765   -3.8897 H         1 UNK         0.0836 
     79 H79        30.5407   -4.8541   -3.9340 H         1 UNK         0.0731 
     80 H80        31.4625   -4.3609   -5.3275 H         1 UNK         0.0731 
     81 H81        32.0509   -1.9957   -5.7107 H         1 UNK         0.1312 
     82 H82        31.5630    0.7386   -2.4422 H         1 UNK         0.1406 
     83 H83        29.7986   -3.1650   -2.2599 H         1 UNK         0.1631 
     84 H84        29.7517   -1.7413   -0.3043 H         1 UNK         0.0717 
     85 H85        30.7419   -0.3073   -0.2512 H         1 UNK         0.0717 
     86 H86        27.8320   -1.8286   -2.0868 H         1 UNK         0.0934 
     87 H87        26.5441   -1.1560   -1.1742 H         1 UNK         0.0934 
     88 H88        26.2118   -1.1423   -3.6415 H         1 UNK         0.0739 
     89 H89        25.2506    0.5632   -1.9611 H         1 UNK         0.3093 
     90 H90        23.4710    1.8093   -2.2670 H         1 UNK         0.0818 
     91 H91        22.0928    3.3628   -3.6323 H         1 UNK         0.0819 
     92 H92        23.7823    3.8374   -3.7067 H         1 UNK         0.0819 
     93 H93        23.0499    3.0037   -5.0689 H         1 UNK         0.0819 
     94 H94        22.0278    0.8423   -4.6159 H         1 UNK         0.3041 
     95 H95        20.6712   -1.7108   -3.3245 H         1 UNK         0.0784 
     96 H96        20.5291   -0.3010   -5.3442 H         1 UNK         0.0793 
     97 H97        22.0012   -1.0207   -6.0016 H         1 UNK         0.0793 
     98 H98        20.5462   -1.9861   -5.8106 H         1 UNK         0.0793 
     99 H99        22.9015   -3.0293   -4.7751 H         1 UNK         0.3024 
    100 H100       23.5114   -5.3481   -2.2531 H         1 UNK         0.1171 
    101 H101       21.4283   -6.4747   -3.0477 H         1 UNK         0.0786 
    102 H102       22.8480   -7.1893   -3.7921 H         1 UNK         0.0786 
    103 H103       21.8290   -6.0820   -4.7138 H         1 UNK         0.0786 
    104 H104       24.1029   -5.2337   -5.1002 H         1 UNK         0.2977 
    105 H105       27.8552    1.9704   -3.3266 H         1 UNK         0.3127 
    106 H106       30.0557    1.3516   -5.0210 H         1 UNK         0.0770 
    107 H107       28.9125    4.0626   -4.1645 H         1 UNK         0.0814 
    108 H108       30.4982    3.8057   -4.8797 H         1 UNK         0.0814 
    109 H109       30.1390    3.1339   -3.2987 H         1 UNK         0.0814 
    110 H110       26.7882    2.0867   -5.9308 H         1 UNK         0.2983 
    111 H111       27.3011    3.5038   -8.3595 H         1 UNK         0.0947 
    112 H112       24.9266    3.0399   -8.8459 H         1 UNK         0.0806 
    113 H113       25.1001    3.5135   -7.1634 H         1 UNK         0.0806 
    114 H114       24.8615    1.8203   -7.5855 H         1 UNK         0.0806 
    115 H115       27.9277    0.2587   -7.6269 H         1 UNK         0.3000 
    116 H116       27.6733   -0.9266  -10.2560 H         1 UNK         0.0850 
    117 H117       29.1396   -2.7018   -9.2236 H         1 UNK         0.0810 
    118 H118       27.7479   -2.3347   -8.2228 H         1 UNK         0.0810 
    119 H119       29.3337   -1.7016   -7.7901 H         1 UNK         0.0810 
    120 H120       29.9687    1.2453   -8.7701 H         1 UNK         0.3040 
    121 H121       31.8218    2.2401   -9.3717 H         1 UNK         0.0766 
    122 H122       32.1116    2.8544  -11.7373 H         1 UNK         0.0812 
    123 H123       30.4042    2.8908  -11.3334 H         1 UNK         0.0812 
    124 H124       31.0657    1.5414  -12.2557 H         1 UNK         0.0812 
    125 H125       32.0195   -0.7045   -8.8625 H         1 UNK         0.3205 
    126 H126       34.2550   -1.6935  -10.4003 H         1 UNK         0.0754 
    127 H127       34.2183   -3.5405   -8.7359 H         1 UNK         0.0769 
    128 H128       32.5954   -3.2051   -9.3150 H         1 UNK         0.0769 
    129 H129       33.1001   -2.6434   -7.7210 H         1 UNK         0.0769 
    130 H130       33.9887    0.3515   -7.5906 H         1 UNK         0.2981 
    131 H131       36.6304   -0.1007   -6.5156 H         1 UNK         0.0541 
    132 H132       38.5385    1.1407   -6.8151 H         1 UNK         0.3459 
    133 H133       38.6586    2.3817   -8.0349 H         1 UNK         0.3459 
    134 H134       34.6094    2.1454   -5.9780 H         1 UNK         0.0612 
    135 H135       36.0997    1.9158   -5.0997 H         1 UNK         0.0612 
    136 H136       32.6015    0.4242   -5.9495 H         1 UNK         0.0624 
    137 H137       32.5070    1.5058   -4.5782 H         1 UNK         0.0624 
@<TRIPOS>BOND
     1    1    2 1    
     2    1   72 1    
     3    1   73 1    
     4    1   74 1    
     5    2    3 2    
     6    2    4 am   BACKBONE|DICT|INTERRES
     7    4    5 1    
     8    4   75 1    
     9    5    6 1    
    10    5   35 1    
    11    5   76 1    
    12    6    7 1    
    13    6   77 1    
    14    6   78 1    
    15    7    8 1    
    16    8    9 1    
    17    8   79 1    
    18    8   80 1    
    19    9   10 ar   
    20    9   14 ar   
    21   10   11 ar   
    22   10   81 1    
    23   11   12 ar   
    24   11   71 1    
    25   12   13 ar   
    26   12   82 1    
    27   13   14 ar   
    28   13   15 1    
    29   14   83 1    
    30   15   16 1    
    31   15   84 1    
    32   15   85 1    
    33   16   17 1    
    34   17   18 1    
    35   17   86 1    
    36   17   87 1    
    37   18   19 1    
    38   18   37 1    
    39   18   88 1    
    40   19   20 am   BACKBONE|DICT|INTERRES
    41   19   89 1    
    42   20   21 2    
    43   20   22 1    
    44   22   23 1    
    45   22   24 1    
    46   22   90 1    
    47   23   91 1    
    48   23   92 1    
    49   23   93 1    
    50   24   25 am   BACKBONE|DICT|INTERRES
    51   24   94 1    
    52   25   26 2    
    53   25   27 1    
    54   27   28 1    
    55   27   29 1    
    56   27   95 1    
    57   28   96 1    
    58   28   97 1    
    59   28   98 1    
    60   29   30 am   BACKBONE|DICT|INTERRES
    61   29   99 1    
    62   30   31 2    
    63   30   32 1    
    64   32   33 1    
    65   32   34 1    
    66   32  100 1    
    67   33  101 1    
    68   33  102 1    
    69   33  103 1    
    70   34   35 am   BACKBONE|DICT|INTERRES
    71   34  104 1    
    72   35   36 2    
    73   37   38 2    
    74   37   39 am   BACKBONE|DICT|INTERRES
    75   39   40 1    
    76   39  105 1    
    77   40   41 1    
    78   40   42 1    
    79   40  106 1    
    80   41  107 1    
    81   41  108 1    
    82   41  109 1    
    83   42   43 2    
    84   42   44 am   BACKBONE|DICT|INTERRES
    85   44   45 1    
    86   44  110 1    
    87   45   46 1    
    88   45   47 1    
    89   45  111 1    
    90   46  112 1    
    91   46  113 1    
    92   46  114 1    
    93   47   48 2    
    94   47   49 am   BACKBONE|DICT|INTERRES
    95   49   50 1    
    96   49  115 1    
    97   50   51 1    
    98   50   52 1    
    99   50  116 1    
   100   51  117 1    
   101   51  118 1    
   102   51  119 1    
   103   52   53 2    
   104   52   54 am   BACKBONE|DICT|INTERRES
   105   54   55 1    
   106   54  120 1    
   107   55   56 1    
   108   55   57 1    
   109   55  121 1    
   110   56  122 1    
   111   56  123 1    
   112   56  124 1    
   113   57   58 2    
   114   57   59 am   BACKBONE|DICT|INTERRES
   115   59   60 1    
   116   59  125 1    
   117   60   61 1    
   118   60   62 1    
   119   60  126 1    
   120   61  127 1    
   121   61  128 1    
   122   61  129 1    
   123   62   63 2    
   124   62   64 am   BACKBONE|DICT|INTERRES
   125   64   65 1    
   126   64  130 1    
   127   65   66 1    
   128   65   69 1    
   129   65  131 1    
   130   66   67 am   BACKBONE|DICT|INTERRES
   131   66   68 2    
   132   67  132 1    
   133   67  133 1    
   134   69   70 1    
   135   69  134 1    
   136   69  135 1    
   137   70   71 1    
   138   71  136 1    
   139   71  137 1    
@<TRIPOS>SUBSTRUCTURE
     1 UNK         1 GROUP             0       ****    0 ROOT    
