@<TRIPOS>MOLECULE
3R137
137   139    1
SMALL
USER_CHARGES


@<TRIPOS>ATOM
      1 CA         24.0391   -3.1836   -0.1216 C.3       0 UNK        -0.2020 
      2 C          25.4785   -2.7614   -0.3708 C.2       0 UNK         0.4855 
      3 O          25.8429   -1.6223   -0.0772 O.2       0 UNK        -0.5197 
      4 N          26.3034   -3.6692   -0.9100 N.am      1 UNK        -0.4892 
      5 CA         27.7183   -3.4265   -1.2117 C.3       1 UNK         0.0835 
      6 C6         28.4624   -4.7366   -1.5627 C.3       12 UNK        -0.0855 
      7 S7         30.2697   -4.5932   -1.3250 S.3       12 UNK        -0.2931 
      8 C8         30.9187   -5.8178   -2.5076 C.3       12 UNK         0.0378 
      9 C9         30.9590   -5.2804   -3.9318 C.ar      12 UNK        -0.0802 
     10 C10        32.0987   -4.6256   -4.4125 C.ar      12 UNK        -0.0944 
     11 C11        32.1479   -4.1637   -5.7327 C.ar      12 UNK        -0.0787 
     12 C12        31.0333   -4.3268   -6.5617 C.ar      12 UNK        -0.0862 
     13 C13        29.8886   -4.9746   -6.0896 C.ar      12 UNK        -0.0733 
     14 C14        29.8674   -5.4679   -4.7832 C.ar      12 UNK        -0.0832 
     15 C15        28.6732   -5.1592   -6.9848 C.3       12 UNK         0.0240 
     16 S16        27.2485   -4.2066   -6.3726 S.3       12 UNK        -0.2522 
     17 C17        27.7810   -2.4990   -6.7280 C.3       12 UNK        -0.0967 
     18 CA         26.5578   -1.5735   -6.9336 C.3       5 UNK         0.0660 
     19 N          25.7974   -1.3989   -5.6920 N.am      5 UNK        -0.4015 
     20 C          24.5054   -1.0520   -5.6293 C.2       4 UNK         0.4946 
     21 O          23.8122   -0.8014   -6.6157 O.2       4 UNK        -0.5353 
     22 CA         23.8926   -0.9436   -4.2266 C.3       4 UNK         0.0277 
     23 CB         23.5402   -2.3351   -3.6769 C.3       4 UNK        -0.1981 
     24 N          24.7931   -0.2511   -3.3027 N.am      4 UNK        -0.4209 
     25 C          24.9283    1.0821   -3.2465 C.2       3 UNK         0.4942 
     26 O          24.2569    1.8664   -3.9167 O.2       3 UNK        -0.5208 
     27 CA         26.0046    1.6397   -2.3000 C.3       3 UNK         0.0250 
     28 CB         25.4293    1.8609   -0.8922 C.3       3 UNK        -0.1990 
     29 N          27.1862    0.7778   -2.2227 N.am      3 UNK        -0.4232 
     30 C          28.0815    0.6459   -3.2132 C.2       2 UNK         0.4993 
     31 O          28.0370    1.2851   -4.2607 O.2       2 UNK        -0.5286 
     32 CA         29.2163   -0.3735   -3.0223 C.3       2 UNK         0.0209 
     33 CB         30.4656    0.3359   -2.4843 C.3       2 UNK        -0.1931 
     34 N          28.8892   -1.4900   -2.1342 N.am      2 UNK        -0.4546 
     35 C          27.8824   -2.3544   -2.3093 C.2       1 UNK         0.5154 
     36 O          27.0926   -2.3067   -3.2577 O.2       1 UNK        -0.5181 
     37 C          26.9636   -0.2464   -7.6082 C.2       5 UNK         0.5014 
     38 O          27.5070   -0.3055   -8.7107 O.2       5 UNK        -0.5248 
     39 N          26.6832    0.9101   -6.9852 N.am      6 UNK        -0.4434 
     40 CA         27.0579    2.2663   -7.4143 C.3       6 UNK         0.0363 
     41 CB         26.3942    3.2942   -6.4824 C.3       6 UNK        -0.1936 
     42 C          26.7507    2.6254   -8.8797 C.2       6 UNK         0.5081 
     43 O          27.4836    3.4203   -9.4682 O.2       6 UNK        -0.5248 
     44 N          25.6918    2.0314   -9.4470 N.am      7 UNK        -0.4718 
     45 CA         25.3174    2.1647  -10.8579 C.3       7 UNK         0.0273 
     46 CB         23.9100    1.5804  -11.0600 C.3       7 UNK        -0.1935 
     47 C          26.3173    1.5066  -11.8300 C.2       7 UNK         0.5018 
     48 O          26.3922    1.9310  -12.9840 O.2       7 UNK        -0.5186 
     49 N          27.0546    0.4926  -11.3582 N.am      8 UNK        -0.4240 
     50 CA         28.1072   -0.2018  -12.0966 C.3       8 UNK         0.0235 
     51 CB         27.9712   -1.7198  -11.8846 C.3       8 UNK        -0.2000 
     52 C          29.4903    0.2913  -11.6495 C.2       8 UNK         0.4941 
     53 O          30.3015    0.6519  -12.5035 O.2       8 UNK        -0.5273 
     54 N          29.7346    0.3131  -10.3323 N.am      9 UNK        -0.4262 
     55 CA         30.9802    0.7615   -9.7172 C.3       9 UNK         0.0264 
     56 CB         32.0840   -0.3019   -9.8825 C.3       9 UNK        -0.1955 
     57 C          30.7298    1.0550   -8.2353 C.2       9 UNK         0.5031 
     58 O          30.3340    0.1542   -7.4933 O.2       9 UNK        -0.5390 
     59 N          30.9948    2.2975   -7.8160 N.am      10 UNK        -0.4204 
     60 CA         30.9564    2.7225   -6.4167 C.3       10 UNK         0.0237 
     61 CB         30.6567    4.2314   -6.3535 C.3       10 UNK        -0.1985 
     62 C          32.2844    2.3502   -5.7369 C.2       10 UNK         0.4970 
     63 O          33.1683    3.1970   -5.6017 O.2       10 UNK        -0.4914 
     64 N          32.4074    1.0708   -5.3703 N.am      11 UNK        -0.4285 
     65 CA         33.6063    0.4263   -4.8039 C.3       11 UNK         0.1007 
     66 C          34.0752    0.9230   -3.4001 C.2       11 UNK         0.5703 
     67 N          33.4339    1.9022   -2.7755 N.am      11 UNK        -0.7361 
     68 O          35.0581    0.4134   -2.8669 O.2       11 UNK        -0.4986 
     69 C69        33.4653   -1.1199   -4.8429 C.3       12 UNK        -0.0947 
     70 S70        33.2485   -1.7425   -6.5412 S.3       12 UNK        -0.2240 
     71 C71        33.4179   -3.5338   -6.2876 C.3       12 UNK         0.0194 
     72 H72        23.7533   -4.0320   -0.7432 H         1 UNK         0.0906 
     73 H73        23.9072   -3.4623    0.9234 H         1 UNK         0.0906 
     74 H74        23.3601   -2.3598   -0.3394 H         1 UNK         0.0906 
     75 H75        25.9459   -4.5791   -1.1640 H         1 UNK         0.3140 
     76 H76        28.1528   -3.0315   -0.2900 H         1 UNK         0.1085 
     77 H77        28.1243   -5.5448   -0.9120 H         1 UNK         0.0836 
     78 H78        28.2217   -5.0512   -2.5772 H         1 UNK         0.0836 
     79 H79        31.9253   -6.1015   -2.1963 H         1 UNK         0.0731 
     80 H80        30.3214   -6.7298   -2.4580 H         1 UNK         0.0731 
     81 H81        32.9549   -4.4951   -3.7647 H         1 UNK         0.1312 
     82 H82        31.0653   -3.9570   -7.5777 H         1 UNK         0.1406 
     83 H83        28.9891   -5.9918   -4.4336 H         1 UNK         0.1631 
     84 H84        28.4057   -6.2165   -7.0100 H         1 UNK         0.0717 
     85 H85        28.8915   -4.8734   -8.0150 H         1 UNK         0.0717 
     86 H86        28.4148   -2.1406   -5.9148 H         1 UNK         0.0934 
     87 H87        28.4125   -2.5158   -7.6190 H         1 UNK         0.0934 
     88 H88        25.8986   -2.0631   -7.6542 H         1 UNK         0.0739 
     89 H89        26.2821   -1.6482   -4.8321 H         1 UNK         0.3093 
     90 H90        22.9648   -0.3733   -4.3118 H         1 UNK         0.0818 
     91 H91        22.9921   -2.2582   -2.7389 H         1 UNK         0.0819 
     92 H92        22.9032   -2.8798   -4.3752 H         1 UNK         0.0819 
     93 H93        24.4279   -2.9447   -3.5036 H         1 UNK         0.0819 
     94 H94        25.4177   -0.8267   -2.7524 H         1 UNK         0.3041 
     95 H95        26.3177    2.6099   -2.6924 H         1 UNK         0.0784 
     96 H96        24.5746    2.5381   -0.9240 H         1 UNK         0.0793 
     97 H97        25.0878    0.9287   -0.4413 H         1 UNK         0.0793 
     98 H98        26.1689    2.3053   -0.2260 H         1 UNK         0.0793 
     99 H99        27.2862    0.2069   -1.3943 H         1 UNK         0.3024 
    100 H100       29.4455   -0.7879   -4.0068 H         1 UNK         0.1171 
    101 H101       30.3134    0.7124   -1.4720 H         1 UNK         0.0786 
    102 H102       31.3272   -0.3310   -2.4678 H         1 UNK         0.0786 
    103 H103       30.7219    1.1909   -3.1093 H         1 UNK         0.0786 
    104 H104       29.4973   -1.6190   -1.3379 H         1 UNK         0.2977 
    105 H105       26.2720    0.8472   -6.0652 H         1 UNK         0.3127 
    106 H106       28.1376    2.3434   -7.2889 H         1 UNK         0.0770 
    107 H107       25.3067    3.2137   -6.5042 H         1 UNK         0.0814 
    108 H108       26.6532    4.3132   -6.7738 H         1 UNK         0.0814 
    109 H109       26.7162    3.1690   -5.4495 H         1 UNK         0.0814 
    110 H110       25.1465    1.3932   -8.8847 H         1 UNK         0.2983 
    111 H111       25.2851    3.2297  -11.0985 H         1 UNK         0.0947 
    112 H112       23.5881    1.6877  -12.0969 H         1 UNK         0.0806 
    113 H113       23.1740    2.0928  -10.4400 H         1 UNK         0.0806 
    114 H114       23.8750    0.5178  -10.8162 H         1 UNK         0.0806 
    115 H115       26.9735    0.2500  -10.3731 H         1 UNK         0.3000 
    116 H116       28.0100   -0.0035  -13.1663 H         1 UNK         0.0850 
    117 H117       28.7519   -2.2595  -12.4223 H         1 UNK         0.0810 
    118 H118       27.0124   -2.0843  -12.2534 H         1 UNK         0.0810 
    119 H119       28.0494   -1.9957  -10.8322 H         1 UNK         0.0810 
    120 H120       29.0057    0.0226   -9.6792 H         1 UNK         0.3040 
    121 H121       31.3011    1.6810  -10.2115 H         1 UNK         0.0766 
    122 H122       33.0019    0.0072   -9.3807 H         1 UNK         0.0812 
    123 H123       32.3293   -0.4687  -10.9311 H         1 UNK         0.0812 
    124 H124       31.7850   -1.2585   -9.4516 H         1 UNK         0.0812 
    125 H125       31.3456    2.9733   -8.4800 H         1 UNK         0.3205 
    126 H126       30.1496    2.2026   -5.8941 H         1 UNK         0.0754 
    127 H127       30.6278    4.5785   -5.3198 H         1 UNK         0.0769 
    128 H128       29.6874    4.4595   -6.7978 H         1 UNK         0.0769 
    129 H129       31.4113    4.8210   -6.8758 H         1 UNK         0.0769 
    130 H130       31.6521    0.4420   -5.6126 H         1 UNK         0.2981 
    131 H131       34.4301    0.6897   -5.4697 H         1 UNK         0.0541 
    132 H132       32.6740    2.3828   -3.2268 H         1 UNK         0.3459 
    133 H133       33.7627    2.2075   -1.8735 H         1 UNK         0.3459 
    134 H134       34.3516   -1.6013   -4.4259 H         1 UNK         0.0612 
    135 H135       32.6189   -1.4482   -4.2375 H         1 UNK         0.0612 
    136 H136       34.2720   -3.7347   -5.6391 H         1 UNK         0.0624 
    137 H137       33.6518   -3.9971   -7.2471 H         1 UNK         0.0624 
@<TRIPOS>BOND
     1    1    2 1    
     2    1   72 1    
     3    1   73 1    
     4    1   74 1    
     5    2    3 2    
     6    2    4 am   BACKBONE|DICT|INTERRES
     7    4    5 1    
     8    4   75 1    
     9    5    6 1    
    10    5   35 1    
    11    5   76 1    
    12    6    7 1    
    13    6   77 1    
    14    6   78 1    
    15    7    8 1    
    16    8    9 1    
    17    8   79 1    
    18    8   80 1    
    19    9   10 ar   
    20    9   14 ar   
    21   10   11 ar   
    22   10   81 1    
    23   11   12 ar   
    24   11   71 1    
    25   12   13 ar   
    26   12   82 1    
    27   13   14 ar   
    28   13   15 1    
    29   14   83 1    
    30   15   16 1    
    31   15   84 1    
    32   15   85 1    
    33   16   17 1    
    34   17   18 1    
    35   17   86 1    
    36   17   87 1    
    37   18   19 1    
    38   18   37 1    
    39   18   88 1    
    40   19   20 am   BACKBONE|DICT|INTERRES
    41   19   89 1    
    42   20   21 2    
    43   20   22 1    
    44   22   23 1    
    45   22   24 1    
    46   22   90 1    
    47   23   91 1    
    48   23   92 1    
    49   23   93 1    
    50   24   25 am   BACKBONE|DICT|INTERRES
    51   24   94 1    
    52   25   26 2    
    53   25   27 1    
    54   27   28 1    
    55   27   29 1    
    56   27   95 1    
    57   28   96 1    
    58   28   97 1    
    59   28   98 1    
    60   29   30 am   BACKBONE|DICT|INTERRES
    61   29   99 1    
    62   30   31 2    
    63   30   32 1    
    64   32   33 1    
    65   32   34 1    
    66   32  100 1    
    67   33  101 1    
    68   33  102 1    
    69   33  103 1    
    70   34   35 am   BACKBONE|DICT|INTERRES
    71   34  104 1    
    72   35   36 2    
    73   37   38 2    
    74   37   39 am   BACKBONE|DICT|INTERRES
    75   39   40 1    
    76   39  105 1    
    77   40   41 1    
    78   40   42 1    
    79   40  106 1    
    80   41  107 1    
    81   41  108 1    
    82   41  109 1    
    83   42   43 2    
    84   42   44 am   BACKBONE|DICT|INTERRES
    85   44   45 1    
    86   44  110 1    
    87   45   46 1    
    88   45   47 1    
    89   45  111 1    
    90   46  112 1    
    91   46  113 1    
    92   46  114 1    
    93   47   48 2    
    94   47   49 am   BACKBONE|DICT|INTERRES
    95   49   50 1    
    96   49  115 1    
    97   50   51 1    
    98   50   52 1    
    99   50  116 1    
   100   51  117 1    
   101   51  118 1    
   102   51  119 1    
   103   52   53 2    
   104   52   54 am   BACKBONE|DICT|INTERRES
   105   54   55 1    
   106   54  120 1    
   107   55   56 1    
   108   55   57 1    
   109   55  121 1    
   110   56  122 1    
   111   56  123 1    
   112   56  124 1    
   113   57   58 2    
   114   57   59 am   BACKBONE|DICT|INTERRES
   115   59   60 1    
   116   59  125 1    
   117   60   61 1    
   118   60   62 1    
   119   60  126 1    
   120   61  127 1    
   121   61  128 1    
   122   61  129 1    
   123   62   63 2    
   124   62   64 am   BACKBONE|DICT|INTERRES
   125   64   65 1    
   126   64  130 1    
   127   65   66 1    
   128   65   69 1    
   129   65  131 1    
   130   66   67 am   BACKBONE|DICT|INTERRES
   131   66   68 2    
   132   67  132 1    
   133   67  133 1    
   134   69   70 1    
   135   69  134 1    
   136   69  135 1    
   137   70   71 1    
   138   71  136 1    
   139   71  137 1    
@<TRIPOS>SUBSTRUCTURE
     1 UNK         1 GROUP             0       ****    0 ROOT    
