@<TRIPOS>MOLECULE
3R137
137   139    1
SMALL
USER_CHARGES


@<TRIPOS>ATOM
      1 CA         24.7559   -6.1848   -0.7223 C.3       0 UNK        -0.2020 
      2 C          25.6511   -4.9700   -0.9136 C.2       0 UNK         0.4855 
      3 O          25.6770   -4.0868   -0.0569 O.2       0 UNK        -0.5197 
      4 N          26.3799   -4.9122   -2.0357 N.am      1 UNK        -0.4892 
      5 CA         27.3215   -3.8347   -2.3702 C.3       1 UNK         0.0835 
      6 C6         28.4318   -4.3178   -3.3413 C.3       12 UNK        -0.0855 
      7 S7         29.5042   -5.6277   -2.6591 S.3       12 UNK        -0.2931 
      8 C8         30.4572   -4.7622   -1.3622 C.3       12 UNK         0.0378 
      9 C9         31.1549   -3.4995   -1.8571 C.ar      12 UNK        -0.0802 
     10 C10        32.3629   -3.5776   -2.5527 C.ar      12 UNK        -0.0944 
     11 C11        33.0191   -2.4195   -2.9836 C.ar      12 UNK        -0.0787 
     12 C12        32.4437   -1.1696   -2.7052 C.ar      12 UNK        -0.0862 
     13 C13        31.2223   -1.0685   -2.0249 C.ar      12 UNK        -0.0733 
     14 C14        30.5971   -2.2468   -1.5946 C.ar      12 UNK        -0.0832 
     15 C15        30.6077    0.3227   -1.8055 C.3       12 UNK         0.0240 
     16 S16        29.0222    0.3390   -0.8739 S.3       12 UNK        -0.2522 
     17 C17        27.8385    1.4908   -1.6766 C.3       12 UNK        -0.0967 
     18 CA         28.1187    1.9857   -3.1177 C.3       5 UNK         0.0660 
     19 N          28.2432    0.8833   -4.0726 N.am      5 UNK        -0.4015 
     20 C          28.7895    1.0084   -5.2892 C.2       4 UNK         0.4946 
     21 O          29.0990    2.0865   -5.7924 O.2       4 UNK        -0.5353 
     22 CA         29.0612   -0.2844   -6.0613 C.3       4 UNK         0.0277 
     23 CB         30.1400   -1.1016   -5.3433 C.3       4 UNK        -0.1981 
     24 N          27.8509   -1.0868   -6.1727 N.am      4 UNK        -0.4209 
     25 C          27.1344   -1.2402   -7.2914 C.2       3 UNK         0.4942 
     26 O          27.4632   -0.7719   -8.3811 O.2       3 UNK        -0.5208 
     27 CA         25.8373   -2.0654   -7.1938 C.3       3 UNK         0.0250 
     28 CB         26.0854   -3.4858   -7.7258 C.3       3 UNK        -0.1990 
     29 N          25.2761   -2.1481   -5.8425 N.am      3 UNK        -0.4232 
     30 C          24.9078   -1.1084   -5.0786 C.2       2 UNK         0.4993 
     31 O          24.9524    0.0675   -5.4449 O.2       2 UNK        -0.5286 
     32 CA         24.5264   -1.4385   -3.6250 C.3       2 UNK         0.0209 
     33 CB         23.0242   -1.7395   -3.5144 C.3       2 UNK        -0.1931 
     34 N          25.3009   -2.5561   -3.0619 N.am      2 UNK        -0.4546 
     35 C          26.6372   -2.5677   -2.9305 C.2       1 UNK         0.5154 
     36 O          27.3426   -1.6227   -3.2868 O.2       1 UNK        -0.5181 
     37 C          27.0615    3.0281   -3.5406 C.2       5 UNK         0.5014 
     38 O          27.2177    4.1970   -3.1822 O.2       5 UNK        -0.5248 
     39 N          26.0158    2.6080   -4.2699 N.am      6 UNK        -0.4434 
     40 CA         24.9486    3.4875   -4.7494 C.3       6 UNK         0.0363 
     41 CB         23.5789    2.9542   -4.2921 C.3       6 UNK        -0.1936 
     42 C          25.0041    3.6422   -6.2741 C.2       6 UNK         0.5081 
     43 O          25.0305    4.7736   -6.7592 O.2       6 UNK        -0.5248 
     44 N          25.0013    2.5198   -7.0084 N.am      7 UNK        -0.4718 
     45 CA         24.8982    2.5236   -8.4735 C.3       7 UNK         0.0273 
     46 CB         24.3497    1.1734   -8.9567 C.3       7 UNK        -0.1935 
     47 C          26.2157    2.8506   -9.1974 C.2       7 UNK         0.5018 
     48 O          26.1616    3.3447  -10.3242 O.2       7 UNK        -0.5186 
     49 N          27.3592    2.5566   -8.5581 N.am      8 UNK        -0.4240 
     50 CA         28.7287    2.7301   -9.0684 C.3       8 UNK         0.0235 
     51 CB         29.0796    4.2291   -9.1810 C.3       8 UNK        -0.2000 
     52 C          29.0257    1.9441  -10.3640 C.2       8 UNK         0.4941 
     53 O          29.8294    2.3938  -11.1835 O.2       8 UNK        -0.5273 
     54 N          28.3809    0.7818  -10.5239 N.am      9 UNK        -0.4262 
     55 CA         28.6013   -0.1547  -11.6250 C.3       9 UNK         0.0264 
     56 CB         27.2874   -0.8911  -11.9360 C.3       9 UNK        -0.1955 
     57 C          29.7157   -1.1530  -11.2776 C.2       9 UNK         0.5031 
     58 O          30.5555   -1.4456  -12.1303 O.2       9 UNK        -0.5390 
     59 N          29.7049   -1.6473  -10.0335 N.am      10 UNK        -0.4204 
     60 CA         30.7348   -2.5147   -9.4614 C.3       10 UNK         0.0237 
     61 CB         30.0509   -3.5319   -8.5300 C.3       10 UNK        -0.1985 
     62 C          31.7854   -1.6821   -8.7059 C.2       10 UNK         0.4970 
     63 O          31.5806   -0.4861   -8.4849 O.2       10 UNK        -0.4914 
     64 N          32.8880   -2.3359   -8.3129 N.am      11 UNK        -0.4285 
     65 CA         34.0096   -1.8022   -7.5111 C.3       11 UNK         0.1007 
     66 C          34.9022   -0.7507   -8.2361 C.2       11 UNK         0.5703 
     67 N          34.3481    0.1303   -9.0575 N.am      11 UNK        -0.7361 
     68 O          36.1203   -0.7581   -8.0754 O.2       11 UNK        -0.4986 
     69 C69        33.5335   -1.3067   -6.1174 C.3       12 UNK        -0.0947 
     70 S70        34.8277   -1.2110   -4.8373 S.3       12 UNK        -0.2240 
     71 C71        34.3583   -2.5745   -3.7135 C.3       12 UNK         0.0194 
     72 H72        23.7158   -5.8740   -0.6263 H         1 UNK         0.0906 
     73 H73        24.8265   -6.8804   -1.5584 H         1 UNK         0.0906 
     74 H74        25.0371   -6.7177    0.1856 H         1 UNK         0.0906 
     75 H75        26.3336   -5.6736   -2.6991 H         1 UNK         0.3140 
     76 H76        27.7997   -3.5116   -1.4449 H         1 UNK         0.1085 
     77 H77        29.0794   -3.4986   -3.6521 H         1 UNK         0.0836 
     78 H78        27.9859   -4.6960   -4.2630 H         1 UNK         0.0836 
     79 H79        31.2028   -5.4512   -0.9625 H         1 UNK         0.0731 
     80 H80        29.7941   -4.5302   -0.5275 H         1 UNK         0.0731 
     81 H81        32.7970   -4.5482   -2.7518 H         1 UNK         0.1312 
     82 H82        32.9396   -0.2650   -3.0280 H         1 UNK         0.1406 
     83 H83        29.6635   -2.2057   -1.0562 H         1 UNK         0.1631 
     84 H84        30.5060    0.7983   -2.7766 H         1 UNK         0.0717 
     85 H85        31.3216    0.9330   -1.2509 H         1 UNK         0.0717 
     86 H86        26.8613    1.0044   -1.6432 H         1 UNK         0.0934 
     87 H87        27.7549    2.3501   -1.0078 H         1 UNK         0.0934 
     88 H88        29.0708    2.5201   -3.1046 H         1 UNK         0.0739 
     89 H89        27.9979   -0.0426   -3.7225 H         1 UNK         0.3093 
     90 H90        29.4381   -0.0101   -7.0481 H         1 UNK         0.0818 
     91 H91        29.8001   -1.4633   -4.3755 H         1 UNK         0.0819 
     92 H92        30.4470   -1.9661   -5.9279 H         1 UNK         0.0819 
     93 H93        31.0212   -0.4885   -5.1625 H         1 UNK         0.0819 
     94 H94        27.4934   -1.4775   -5.3089 H         1 UNK         0.3041 
     95 H95        25.0882   -1.5920   -7.8280 H         1 UNK         0.0784 
     96 H96        26.4761   -3.4586   -8.7444 H         1 UNK         0.0793 
     97 H97        26.8095   -4.0264   -7.1147 H         1 UNK         0.0793 
     98 H98        25.1640   -4.0679   -7.7514 H         1 UNK         0.0793 
     99 H99        25.2026   -3.0717   -5.4419 H         1 UNK         0.3024 
    100 H100       24.7438   -0.5508   -3.0266 H         1 UNK         0.1171 
    101 H101       22.7242   -1.8827   -2.4761 H         1 UNK         0.0786 
    102 H102       22.4313   -0.9131   -3.9095 H         1 UNK         0.0786 
    103 H103       22.7474   -2.6356   -4.0712 H         1 UNK         0.0786 
    104 H104       24.7861   -3.3636   -2.7417 H         1 UNK         0.2977 
    105 H105       25.9570    1.6357   -4.5522 H         1 UNK         0.3127 
    106 H106       25.0575    4.4877   -4.3246 H         1 UNK         0.0770 
    107 H107       23.3614    1.9650   -4.6936 H         1 UNK         0.0814 
    108 H108       22.7772    3.6179   -4.6185 H         1 UNK         0.0814 
    109 H109       23.5239    2.8917   -3.2054 H         1 UNK         0.0814 
    110 H110       24.9584    1.6192   -6.5362 H         1 UNK         0.2983 
    111 H111       24.1746    3.2912   -8.7587 H         1 UNK         0.0947 
    112 H112       24.0872    1.2202  -10.0144 H         1 UNK         0.0806 
    113 H113       23.4528    0.8806   -8.4105 H         1 UNK         0.0806 
    114 H114       25.0893    0.3840   -8.8489 H         1 UNK         0.0806 
    115 H115       27.2882    2.1629   -7.6302 H         1 UNK         0.3000 
    116 H116       29.3933    2.2978   -8.3209 H         1 UNK         0.0850 
    117 H117       30.1339    4.3684   -9.4232 H         1 UNK         0.0810 
    118 H118       28.8944    4.7489   -8.2409 H         1 UNK         0.0810 
    119 H119       28.4982    4.7234   -9.9597 H         1 UNK         0.0810 
    120 H120       27.7959    0.4481   -9.7618 H         1 UNK         0.3040 
    121 H121       28.9024    0.3953  -12.5193 H         1 UNK         0.0766 
    122 H122       26.5029   -0.1918  -12.2255 H         1 UNK         0.0812 
    123 H123       26.9263   -1.4608  -11.0787 H         1 UNK         0.0812 
    124 H124       27.4195   -1.5913  -12.7619 H         1 UNK         0.0812 
    125 H125       28.9900   -1.3120   -9.3936 H         1 UNK         0.3205 
    126 H126       31.2446   -3.0609  -10.2579 H         1 UNK         0.0754 
    127 H127       30.7751   -4.2017   -8.0648 H         1 UNK         0.0769 
    128 H128       29.3471   -4.1554   -9.0818 H         1 UNK         0.0769 
    129 H129       29.4968   -3.0432   -7.7301 H         1 UNK         0.0769 
    130 H130       32.9844   -3.3055   -8.5777 H         1 UNK         0.2981 
    131 H131       34.6502   -2.6686   -7.3404 H         1 UNK         0.0541 
    132 H132       33.3383    0.1558   -9.1375 H         1 UNK         0.3459 
    133 H133       34.9221    0.8042   -9.5383 H         1 UNK         0.3459 
    134 H134       32.7641   -1.9831   -5.7481 H         1 UNK         0.0612 
    135 H135       33.0661   -0.3245   -6.2004 H         1 UNK         0.0612 
    136 H136       35.1429   -2.6808   -2.9636 H         1 UNK         0.0624 
    137 H137       34.3595   -3.4995   -4.2926 H         1 UNK         0.0624 
@<TRIPOS>BOND
     1    1    2 1    
     2    1   72 1    
     3    1   73 1    
     4    1   74 1    
     5    2    3 2    
     6    2    4 am   BACKBONE|DICT|INTERRES
     7    4    5 1    
     8    4   75 1    
     9    5    6 1    
    10    5   35 1    
    11    5   76 1    
    12    6    7 1    
    13    6   77 1    
    14    6   78 1    
    15    7    8 1    
    16    8    9 1    
    17    8   79 1    
    18    8   80 1    
    19    9   10 ar   
    20    9   14 ar   
    21   10   11 ar   
    22   10   81 1    
    23   11   12 ar   
    24   11   71 1    
    25   12   13 ar   
    26   12   82 1    
    27   13   14 ar   
    28   13   15 1    
    29   14   83 1    
    30   15   16 1    
    31   15   84 1    
    32   15   85 1    
    33   16   17 1    
    34   17   18 1    
    35   17   86 1    
    36   17   87 1    
    37   18   19 1    
    38   18   37 1    
    39   18   88 1    
    40   19   20 am   BACKBONE|DICT|INTERRES
    41   19   89 1    
    42   20   21 2    
    43   20   22 1    
    44   22   23 1    
    45   22   24 1    
    46   22   90 1    
    47   23   91 1    
    48   23   92 1    
    49   23   93 1    
    50   24   25 am   BACKBONE|DICT|INTERRES
    51   24   94 1    
    52   25   26 2    
    53   25   27 1    
    54   27   28 1    
    55   27   29 1    
    56   27   95 1    
    57   28   96 1    
    58   28   97 1    
    59   28   98 1    
    60   29   30 am   BACKBONE|DICT|INTERRES
    61   29   99 1    
    62   30   31 2    
    63   30   32 1    
    64   32   33 1    
    65   32   34 1    
    66   32  100 1    
    67   33  101 1    
    68   33  102 1    
    69   33  103 1    
    70   34   35 am   BACKBONE|DICT|INTERRES
    71   34  104 1    
    72   35   36 2    
    73   37   38 2    
    74   37   39 am   BACKBONE|DICT|INTERRES
    75   39   40 1    
    76   39  105 1    
    77   40   41 1    
    78   40   42 1    
    79   40  106 1    
    80   41  107 1    
    81   41  108 1    
    82   41  109 1    
    83   42   43 2    
    84   42   44 am   BACKBONE|DICT|INTERRES
    85   44   45 1    
    86   44  110 1    
    87   45   46 1    
    88   45   47 1    
    89   45  111 1    
    90   46  112 1    
    91   46  113 1    
    92   46  114 1    
    93   47   48 2    
    94   47   49 am   BACKBONE|DICT|INTERRES
    95   49   50 1    
    96   49  115 1    
    97   50   51 1    
    98   50   52 1    
    99   50  116 1    
   100   51  117 1    
   101   51  118 1    
   102   51  119 1    
   103   52   53 2    
   104   52   54 am   BACKBONE|DICT|INTERRES
   105   54   55 1    
   106   54  120 1    
   107   55   56 1    
   108   55   57 1    
   109   55  121 1    
   110   56  122 1    
   111   56  123 1    
   112   56  124 1    
   113   57   58 2    
   114   57   59 am   BACKBONE|DICT|INTERRES
   115   59   60 1    
   116   59  125 1    
   117   60   61 1    
   118   60   62 1    
   119   60  126 1    
   120   61  127 1    
   121   61  128 1    
   122   61  129 1    
   123   62   63 2    
   124   62   64 am   BACKBONE|DICT|INTERRES
   125   64   65 1    
   126   64  130 1    
   127   65   66 1    
   128   65   69 1    
   129   65  131 1    
   130   66   67 am   BACKBONE|DICT|INTERRES
   131   66   68 2    
   132   67  132 1    
   133   67  133 1    
   134   69   70 1    
   135   69  134 1    
   136   69  135 1    
   137   70   71 1    
   138   71  136 1    
   139   71  137 1    
@<TRIPOS>SUBSTRUCTURE
     1 UNK         1 GROUP             0       ****    0 ROOT    
