@<TRIPOS>MOLECULE
3R137
137   139    1
SMALL
USER_CHARGES


@<TRIPOS>ATOM
      1 CA         26.6795   -0.1944    3.9337 C.3       0 UNK        -0.2020 
      2 C          26.9244   -0.0449    2.4396 C.2       0 UNK         0.4855 
      3 O          27.1821    1.0639    1.9708 O.2       0 UNK        -0.5197 
      4 N          26.8511   -1.1535    1.6904 N.am      1 UNK        -0.4892 
      5 CA         27.0240   -1.1950    0.2329 C.3       1 UNK         0.0835 
      6 C6         27.2259   -2.6541   -0.2534 C.3       12 UNK        -0.0855 
      7 S7         27.7678   -2.7764   -1.9906 S.3       12 UNK        -0.2931 
      8 C8         29.5503   -3.0806   -1.8012 C.3       12 UNK         0.0378 
      9 C9         30.2521   -3.0514   -3.1509 C.ar      12 UNK        -0.0802 
     10 C10        31.1177   -2.0021   -3.4779 C.ar      12 UNK        -0.0944 
     11 C11        31.7578   -1.9750   -4.7204 C.ar      12 UNK        -0.0787 
     12 C12        31.5259   -3.0034   -5.6375 C.ar      12 UNK        -0.0862 
     13 C13        30.6636   -4.0561   -5.3239 C.ar      12 UNK        -0.0733 
     14 C14        30.0341   -4.0780   -4.0756 C.ar      12 UNK        -0.0832 
     15 C15        30.4226   -5.1735   -6.3300 C.3       12 UNK         0.0240 
     16 S16        29.5900   -4.5876   -7.8418 S.3       12 UNK        -0.2522 
     17 C17        27.9939   -3.9988   -7.1900 C.3       12 UNK        -0.0967 
     18 CA         27.5254   -2.6656   -7.8257 C.3       5 UNK         0.0660 
     19 N          26.0814   -2.4997   -7.6318 N.am      5 UNK        -0.4015 
     20 C          25.3244   -1.5337   -8.1675 C.2       4 UNK         0.4946 
     21 O          25.7542   -0.6654   -8.9228 O.2       4 UNK        -0.5353 
     22 CA         23.8378   -1.5110   -7.7735 C.3       4 UNK         0.0277 
     23 CB         23.0055   -2.3087   -8.7901 C.3       4 UNK        -0.1981 
     24 N          23.5589   -2.0023   -6.4198 N.am      4 UNK        -0.4209 
     25 C          24.0579   -1.4916   -5.2853 C.2       3 UNK         0.4942 
     26 O          24.8815   -0.5726   -5.2404 O.2       3 UNK        -0.5208 
     27 CA         23.5811   -2.1650   -3.9949 C.3       3 UNK         0.0250 
     28 CB         24.3474   -3.4776   -3.7511 C.3       3 UNK        -0.1990 
     29 N          23.7755   -1.2670   -2.8593 N.am      3 UNK        -0.4232 
     30 C          22.9826   -1.2067   -1.7828 C.2       2 UNK         0.4993 
     31 O          21.9855   -1.9158   -1.6302 O.2       2 UNK        -0.5286 
     32 CA         23.4013   -0.2257   -0.6709 C.3       2 UNK         0.0209 
     33 CB         22.3121   -0.0399    0.4029 C.3       2 UNK        -0.1931 
     34 N          24.6273   -0.6951   -0.0232 N.am      2 UNK        -0.4546 
     35 C          25.8609   -0.4956   -0.5058 C.2       1 UNK         0.5154 
     36 O          26.0899    0.2077   -1.4899 O.2       1 UNK        -0.5181 
     37 C          28.3296   -1.4434   -7.3199 C.2       5 UNK         0.5014 
     38 O          29.2336   -0.9665   -8.0139 O.2       5 UNK        -0.5248 
     39 N          27.9444   -0.9231   -6.1453 N.am      6 UNK        -0.4434 
     40 CA         28.5061    0.2971   -5.5700 C.3       6 UNK         0.0363 
     41 CB         28.2034    0.3537   -4.0684 C.3       6 UNK        -0.1936 
     42 C          27.9766    1.5565   -6.2681 C.2       6 UNK         0.5081 
     43 O          28.7563    2.4787   -6.5001 O.2       6 UNK        -0.5248 
     44 N          26.6803    1.5736   -6.6168 N.am      7 UNK        -0.4718 
     45 CA         26.0293    2.6876   -7.3200 C.3       7 UNK         0.0273 
     46 CB         24.5127    2.4536   -7.3807 C.3       7 UNK        -0.1935 
     47 C          26.5992    2.9296   -8.7299 C.2       7 UNK         0.5018 
     48 O          26.7709    4.0831   -9.1246 O.2       7 UNK        -0.5186 
     49 N          26.9225    1.8412   -9.4421 N.am      8 UNK        -0.4240 
     50 CA         27.6274    1.8483  -10.7269 C.3       8 UNK         0.0235 
     51 CB         27.4286    0.4849  -11.4108 C.3       8 UNK        -0.2000 
     52 C          29.1307    2.1638  -10.6031 C.2       8 UNK         0.4941 
     53 O          29.7725    2.3868  -11.6305 O.2       8 UNK        -0.5273 
     54 N          29.6626    2.1661   -9.3704 N.am      9 UNK        -0.4262 
     55 CA         31.0582    2.4019   -8.9940 C.3       9 UNK         0.0264 
     56 CB         31.4655    3.8628   -9.2812 C.3       9 UNK        -0.1955 
     57 C          32.0190    1.3719   -9.6119 C.2       9 UNK         0.5031 
     58 O          33.0639    1.7485  -10.1482 O.2       9 UNK        -0.5390 
     59 N          31.6695    0.0797   -9.5019 N.am      10 UNK        -0.4204 
     60 CA         32.4564   -1.0434  -10.0334 C.3       10 UNK         0.0237 
     61 CB         31.6582   -2.3429   -9.8615 C.3       10 UNK        -0.1985 
     62 C          33.8668   -1.1865   -9.4235 C.2       10 UNK         0.4970 
     63 O          34.7274   -1.8172  -10.0384 O.2       10 UNK        -0.4914 
     64 N          34.0816   -0.5823   -8.2487 N.am      11 UNK        -0.4285 
     65 CA         35.3881   -0.4179   -7.5961 C.3       11 UNK         0.1007 
     66 C          36.3246    0.6132   -8.2947 C.2       11 UNK         0.5703 
     67 N          35.8522    1.4354   -9.2259 N.am      11 UNK        -0.7361 
     68 O          37.5135    0.6614   -7.9879 O.2       11 UNK        -0.4986 
     69 C69        35.2257   -0.0830   -6.0886 C.3       12 UNK        -0.0947 
     70 S70        34.4194   -1.4286   -5.1617 S.3       12 UNK        -0.2240 
     71 C71        32.6989   -0.8402   -5.0872 C.3       12 UNK         0.0194 
     72 H72        27.5533    0.1400    4.4925 H         1 UNK         0.0906 
     73 H73        26.4738   -1.2275    4.2135 H         1 UNK         0.0906 
     74 H74        25.8281    0.4146    4.2367 H         1 UNK         0.0906 
     75 H75        26.6477   -2.0369    2.1375 H         1 UNK         0.3140 
     76 H76        27.9314   -0.6335   -0.0024 H         1 UNK         0.1085 
     77 H77        26.3043   -3.2289   -0.1421 H         1 UNK         0.0836 
     78 H78        27.9637   -3.1573    0.3739 H         1 UNK         0.0836 
     79 H79        29.9745   -2.3316   -1.1306 H         1 UNK         0.0731 
     80 H80        29.7072   -4.0507   -1.3272 H         1 UNK         0.0731 
     81 H81        31.2912   -1.2057   -2.7671 H         1 UNK         0.1312 
     82 H82        32.0230   -2.9860   -6.5971 H         1 UNK         0.1406 
     83 H83        29.3632   -4.8877   -3.8217 H         1 UNK         0.1631 
     84 H84        29.8309   -5.9769   -5.8883 H         1 UNK         0.0717 
     85 H85        31.3810   -5.6153   -6.6059 H         1 UNK         0.0717 
     86 H86        27.2721   -4.7883   -7.4062 H         1 UNK         0.0934 
     87 H87        28.0220   -3.9197   -6.1022 H         1 UNK         0.0934 
     88 H88        27.6850   -2.7263   -8.9047 H         1 UNK         0.0739 
     89 H89        25.6284   -3.1689   -7.0281 H         1 UNK         0.3093 
     90 H90        23.5052   -0.4736   -7.8103 H         1 UNK         0.0818 
     91 H91        23.1769   -1.9453   -9.8046 H         1 UNK         0.0819 
     92 H92        23.2576   -3.3698   -8.7777 H         1 UNK         0.0819 
     93 H93        21.9376   -2.2137   -8.5923 H         1 UNK         0.0819 
     94 H94        22.8985   -2.7640   -6.3512 H         1 UNK         0.3041 
     95 H95        22.5164   -2.3830   -4.1054 H         1 UNK         0.0784 
     96 H96        24.1670   -4.1965   -4.5510 H         1 UNK         0.0793 
     97 H97        25.4232   -3.3096   -3.6998 H         1 UNK         0.0793 
     98 H98        24.0395   -3.9505   -2.8183 H         1 UNK         0.0793 
     99 H99        24.5762   -0.6465   -2.9277 H         1 UNK         0.3024 
    100 H100       23.5789    0.7467   -1.1369 H         1 UNK         0.1171 
    101 H101       22.0908   -0.9722    0.9242 H         1 UNK         0.0786 
    102 H102       22.6133    0.6967    1.1481 H         1 UNK         0.0786 
    103 H103       21.3816    0.3138   -0.0431 H         1 UNK         0.0786 
    104 H104       24.5172   -1.2899    0.7851 H         1 UNK         0.2977 
    105 H105       27.1553   -1.3278   -5.6608 H         1 UNK         0.3127 
    106 H106       29.5912    0.2725   -5.6947 H         1 UNK         0.0770 
    107 H107       28.5948    1.2681   -3.6210 H         1 UNK         0.0814 
    108 H108       27.1310    0.3282   -3.8761 H         1 UNK         0.0814 
    109 H109       28.6594   -0.4822   -3.5420 H         1 UNK         0.0814 
    110 H110       26.0965    0.7867   -6.3537 H         1 UNK         0.2983 
    111 H111       26.2097    3.5905   -6.7324 H         1 UNK         0.0947 
    112 H112       24.2608    1.6380   -8.0568 H         1 UNK         0.0806 
    113 H113       23.9998    3.3436   -7.7474 H         1 UNK         0.0806 
    114 H114       24.1008    2.2213   -6.3982 H         1 UNK         0.0806 
    115 H115       26.6603    0.9257   -9.0782 H         1 UNK         0.3000 
    116 H116       27.1828    2.6197  -11.3591 H         1 UNK         0.0850 
    117 H117       27.9052    0.4625  -12.3918 H         1 UNK         0.0810 
    118 H118       26.3710    0.2662  -11.5596 H         1 UNK         0.0810 
    119 H119       27.8576   -0.3257  -10.8195 H         1 UNK         0.0810 
    120 H120       29.0393    1.9931   -8.5909 H         1 UNK         0.3040 
    121 H121       31.1118    2.2549   -7.9144 H         1 UNK         0.0766 
    122 H122       31.4791    4.0782  -10.3500 H         1 UNK         0.0812 
    123 H123       32.4638    4.0728   -8.8953 H         1 UNK         0.0812 
    124 H124       30.7804    4.5646   -8.8055 H         1 UNK         0.0812 
    125 H125       30.7953   -0.1596   -9.0387 H         1 UNK         0.3205 
    126 H126       32.5905   -0.8673  -11.1026 H         1 UNK         0.0754 
    127 H127       32.1976   -3.1975  -10.2721 H         1 UNK         0.0769 
    128 H128       30.6955   -2.2905  -10.3704 H         1 UNK         0.0769 
    129 H129       31.4666   -2.5503   -8.8099 H         1 UNK         0.0769 
    130 H130       33.3144   -0.0826   -7.8301 H         1 UNK         0.2981 
    131 H131       35.9060   -1.3765   -7.6660 H         1 UNK         0.0541 
    132 H132       34.8748    1.4234   -9.5013 H         1 UNK         0.3459 
    133 H133       36.4821    2.0882   -9.6638 H         1 UNK         0.3459 
    134 H134       34.6700    0.8467   -5.9522 H         1 UNK         0.0612 
    135 H135       36.2010    0.0769   -5.6251 H         1 UNK         0.0612 
    136 H136       32.6296   -0.0233   -4.3672 H         1 UNK         0.0624 
    137 H137       32.3956   -0.4317   -6.0512 H         1 UNK         0.0624 
@<TRIPOS>BOND
     1    1    2 1    
     2    1   72 1    
     3    1   73 1    
     4    1   74 1    
     5    2    3 2    
     6    2    4 am   BACKBONE|DICT|INTERRES
     7    4    5 1    
     8    4   75 1    
     9    5    6 1    
    10    5   35 1    
    11    5   76 1    
    12    6    7 1    
    13    6   77 1    
    14    6   78 1    
    15    7    8 1    
    16    8    9 1    
    17    8   79 1    
    18    8   80 1    
    19    9   10 ar   
    20    9   14 ar   
    21   10   11 ar   
    22   10   81 1    
    23   11   12 ar   
    24   11   71 1    
    25   12   13 ar   
    26   12   82 1    
    27   13   14 ar   
    28   13   15 1    
    29   14   83 1    
    30   15   16 1    
    31   15   84 1    
    32   15   85 1    
    33   16   17 1    
    34   17   18 1    
    35   17   86 1    
    36   17   87 1    
    37   18   19 1    
    38   18   37 1    
    39   18   88 1    
    40   19   20 am   BACKBONE|DICT|INTERRES
    41   19   89 1    
    42   20   21 2    
    43   20   22 1    
    44   22   23 1    
    45   22   24 1    
    46   22   90 1    
    47   23   91 1    
    48   23   92 1    
    49   23   93 1    
    50   24   25 am   BACKBONE|DICT|INTERRES
    51   24   94 1    
    52   25   26 2    
    53   25   27 1    
    54   27   28 1    
    55   27   29 1    
    56   27   95 1    
    57   28   96 1    
    58   28   97 1    
    59   28   98 1    
    60   29   30 am   BACKBONE|DICT|INTERRES
    61   29   99 1    
    62   30   31 2    
    63   30   32 1    
    64   32   33 1    
    65   32   34 1    
    66   32  100 1    
    67   33  101 1    
    68   33  102 1    
    69   33  103 1    
    70   34   35 am   BACKBONE|DICT|INTERRES
    71   34  104 1    
    72   35   36 2    
    73   37   38 2    
    74   37   39 am   BACKBONE|DICT|INTERRES
    75   39   40 1    
    76   39  105 1    
    77   40   41 1    
    78   40   42 1    
    79   40  106 1    
    80   41  107 1    
    81   41  108 1    
    82   41  109 1    
    83   42   43 2    
    84   42   44 am   BACKBONE|DICT|INTERRES
    85   44   45 1    
    86   44  110 1    
    87   45   46 1    
    88   45   47 1    
    89   45  111 1    
    90   46  112 1    
    91   46  113 1    
    92   46  114 1    
    93   47   48 2    
    94   47   49 am   BACKBONE|DICT|INTERRES
    95   49   50 1    
    96   49  115 1    
    97   50   51 1    
    98   50   52 1    
    99   50  116 1    
   100   51  117 1    
   101   51  118 1    
   102   51  119 1    
   103   52   53 2    
   104   52   54 am   BACKBONE|DICT|INTERRES
   105   54   55 1    
   106   54  120 1    
   107   55   56 1    
   108   55   57 1    
   109   55  121 1    
   110   56  122 1    
   111   56  123 1    
   112   56  124 1    
   113   57   58 2    
   114   57   59 am   BACKBONE|DICT|INTERRES
   115   59   60 1    
   116   59  125 1    
   117   60   61 1    
   118   60   62 1    
   119   60  126 1    
   120   61  127 1    
   121   61  128 1    
   122   61  129 1    
   123   62   63 2    
   124   62   64 am   BACKBONE|DICT|INTERRES
   125   64   65 1    
   126   64  130 1    
   127   65   66 1    
   128   65   69 1    
   129   65  131 1    
   130   66   67 am   BACKBONE|DICT|INTERRES
   131   66   68 2    
   132   67  132 1    
   133   67  133 1    
   134   69   70 1    
   135   69  134 1    
   136   69  135 1    
   137   70   71 1    
   138   71  136 1    
   139   71  137 1    
@<TRIPOS>SUBSTRUCTURE
     1 UNK         1 GROUP             0       ****    0 ROOT    
