@<TRIPOS>MOLECULE
3R137
137   139    1
SMALL
USER_CHARGES


@<TRIPOS>ATOM
      1 CA         25.4754   -6.0215   -4.2461 C.3       0 UNK        -0.2020 
      2 C          25.5001   -5.0098   -3.1112 C.2       0 UNK         0.4855 
      3 O          24.4388   -4.5780   -2.6598 O.2       0 UNK        -0.5197 
      4 N          26.7024   -4.6261   -2.6577 N.am      1 UNK        -0.4892 
      5 CA         26.9770   -3.6644   -1.5809 C.3       1 UNK         0.0835 
      6 C6         28.4938   -3.3967   -1.4257 C.3       12 UNK        -0.0855 
      7 S7         29.5315   -4.8864   -1.2615 S.3       12 UNK        -0.2931 
      8 C8         31.1509   -4.1360   -0.8706 C.3       12 UNK         0.0378 
      9 C9         31.5088   -2.9955   -1.8181 C.ar      12 UNK        -0.0802 
     10 C10        31.9838   -3.2651   -3.1041 C.ar      12 UNK        -0.0944 
     11 C11        32.2820   -2.2193   -3.9835 C.ar      12 UNK        -0.0787 
     12 C12        32.1012   -0.8959   -3.5701 C.ar      12 UNK        -0.0862 
     13 C13        31.6185   -0.6118   -2.2877 C.ar      12 UNK        -0.0733 
     14 C14        31.3373   -1.6671   -1.4144 C.ar      12 UNK        -0.0832 
     15 C15        31.4156    0.8270   -1.8202 C.3       12 UNK         0.0240 
     16 S16        30.4929    1.8737   -2.9970 S.3       12 UNK        -0.2522 
     17 C17        28.8928    1.0070   -3.1612 C.3       12 UNK        -0.0967 
     18 CA         28.4452    0.9379   -4.6442 C.3       5 UNK         0.0660 
     19 N          27.6508   -0.2578   -4.9301 N.am      5 UNK        -0.4015 
     20 C          27.3843   -0.7122   -6.1618 C.2       4 UNK         0.4946 
     21 O          27.7155   -0.1234   -7.1919 O.2       4 UNK        -0.5353 
     22 CA         26.6080   -2.0286   -6.2646 C.3       4 UNK         0.0277 
     23 CB         27.5201   -3.2139   -5.9080 C.3       4 UNK        -0.1981 
     24 N          25.4294   -2.0271   -5.3944 N.am      4 UNK        -0.4209 
     25 C          24.1838   -1.7480   -5.8052 C.2       3 UNK         0.4942 
     26 O          23.9047   -1.4359   -6.9618 O.2       3 UNK        -0.5208 
     27 CA         23.0411   -1.8513   -4.7775 C.3       3 UNK         0.0250 
     28 CB         22.2362   -3.1421   -5.0023 C.3       3 UNK        -0.1990 
     29 N          23.5025   -1.8121   -3.3887 N.am      3 UNK        -0.4232 
     30 C          23.7856   -0.6832   -2.7225 C.2       2 UNK         0.4993 
     31 O          23.6506    0.4431   -3.1987 O.2       2 UNK        -0.5286 
     32 CA         24.3609   -0.8301   -1.3000 C.3       2 UNK         0.0209 
     33 CB         23.2306   -0.8158   -0.2586 C.3       2 UNK        -0.1931 
     34 N          25.1863   -2.0296   -1.1088 N.am      2 UNK        -0.4546 
     35 C          26.2685   -2.3221   -1.8417 C.2       1 UNK         0.5154 
     36 O          26.6856   -1.5991   -2.7488 O.2       1 UNK        -0.5181 
     37 C          27.7413    2.2337   -5.1007 C.2       5 UNK         0.5014 
     38 O          28.4113    3.1602   -5.5552 O.2       5 UNK        -0.5248 
     39 N          26.4038    2.2686   -5.0094 N.am      6 UNK        -0.4434 
     40 CA         25.5852    3.3815   -5.4961 C.3       6 UNK         0.0363 
     41 CB         24.1938    3.3077   -4.8481 C.3       6 UNK        -0.1936 
     42 C          25.4533    3.4128   -7.0300 C.2       6 UNK         0.5081 
     43 O          25.2185    4.4860   -7.5862 O.2       6 UNK        -0.5248 
     44 N          25.5705    2.2475   -7.6811 N.am      7 UNK        -0.4718 
     45 CA         25.3785    2.0848   -9.1215 C.3       7 UNK         0.0273 
     46 CB         24.7038    0.7304   -9.3981 C.3       7 UNK        -0.1935 
     47 C          26.6991    2.2042   -9.8922 C.2       7 UNK         0.5018 
     48 O          26.7977    3.0353  -10.7959 O.2       7 UNK        -0.5186 
     49 N          27.6734    1.3547   -9.5444 N.am      8 UNK        -0.4240 
     50 CA         28.9493    1.2270  -10.2464 C.3       8 UNK         0.0235 
     51 CB         29.3163   -0.2630  -10.3640 C.3       8 UNK        -0.2000 
     52 C          30.0750    1.9866   -9.5389 C.2       8 UNK         0.4941 
     53 O          30.9025    2.5937  -10.2206 O.2       8 UNK        -0.5273 
     54 N          30.1168    1.9062   -8.1991 N.am      9 UNK        -0.4262 
     55 CA         31.1812    2.3806   -7.2970 C.3       9 UNK         0.0264 
     56 CB         31.3767    3.9081   -7.3751 C.3       9 UNK        -0.1955 
     57 C          32.5035    1.6174   -7.4886 C.2       9 UNK         0.5031 
     58 O          32.9586    0.9436   -6.5650 O.2       9 UNK        -0.5390 
     59 N          33.0671    1.6906   -8.6984 N.am      10 UNK        -0.4204 
     60 CA         34.1412    0.8304   -9.1803 C.3       10 UNK         0.0237 
     61 CB         34.9815    1.6048  -10.2122 C.3       10 UNK        -0.1985 
     62 C          33.4916   -0.4280   -9.7747 C.2       10 UNK         0.4970 
     63 O          33.2135   -0.4639  -10.9747 O.2       10 UNK        -0.4914 
     64 N          33.1925   -1.3967   -8.9011 N.am      11 UNK        -0.4285 
     65 CA         32.5042   -2.6588   -9.2135 C.3       11 UNK         0.1007 
     66 C          33.1972   -3.4860  -10.3330 C.2       11 UNK         0.5703 
     67 N          32.4267   -4.1062  -11.2166 N.am      11 UNK        -0.7361 
     68 O          34.4206   -3.6068  -10.3752 O.2       11 UNK        -0.4986 
     69 C69        32.3242   -3.5362   -7.9479 C.3       12 UNK        -0.0947 
     70 S70        31.4561   -2.6958   -6.5787 S.3       12 UNK        -0.2240 
     71 C71        32.8102   -2.5259   -5.3747 C.3       12 UNK         0.0194 
     72 H72        26.4777   -6.3391   -4.5327 H         1 UNK         0.0906 
     73 H73        24.9124   -6.9052   -3.9471 H         1 UNK         0.0906 
     74 H74        24.9917   -5.5899   -5.1219 H         1 UNK         0.0906 
     75 H75        27.5324   -5.0364   -3.0624 H         1 UNK         0.3140 
     76 H76        26.6007   -4.0916   -0.6494 H         1 UNK         0.1085 
     77 H77        28.8659   -2.8504   -2.2954 H         1 UNK         0.0836 
     78 H78        28.6729   -2.7568   -0.5592 H         1 UNK         0.0836 
     79 H79        31.9209   -4.9074   -0.9174 H         1 UNK         0.0731 
     80 H80        31.1376   -3.7832    0.1618 H         1 UNK         0.0731 
     81 H81        32.1104   -4.2906   -3.4237 H         1 UNK         0.1312 
     82 H82        32.3295   -0.0862   -4.2497 H         1 UNK         0.1406 
     83 H83        30.9681   -1.4559   -0.4199 H         1 UNK         0.1631 
     84 H84        32.3943    1.2769   -1.6493 H         1 UNK         0.0717 
     85 H85        30.8949    0.8528   -0.8618 H         1 UNK         0.0717 
     86 H86        29.0048   -0.0008   -2.7590 H         1 UNK         0.0934 
     87 H87        28.1445    1.4912   -2.5305 H         1 UNK         0.0934 
     88 H88        29.3417    0.8275   -5.2561 H         1 UNK         0.0739 
     89 H89        27.3239   -0.7879   -4.1214 H         1 UNK         0.3093 
     90 H90        26.3018   -2.1509   -7.3059 H         1 UNK         0.0818 
     91 H91        27.8806   -3.1610   -4.8801 H         1 UNK         0.0819 
     92 H92        27.0022   -4.1634   -6.0372 H         1 UNK         0.0819 
     93 H93        28.3966   -3.2368   -6.5570 H         1 UNK         0.0819 
     94 H94        25.5899   -2.1956   -4.4092 H         1 UNK         0.3041 
     95 H95        22.3723   -1.0052   -4.9505 H         1 UNK         0.0784 
     96 H96        21.8371   -3.1820   -6.0168 H         1 UNK         0.0793 
     97 H97        22.8493   -4.0323   -4.8587 H         1 UNK         0.0793 
     98 H98        21.3888   -3.2051   -4.3194 H         1 UNK         0.0793 
     99 H99        23.6765   -2.7069   -2.9390 H         1 UNK         0.3024 
    100 H100       25.0005    0.0381   -1.1251 H         1 UNK         0.1171 
    101 H101       22.6127    0.0771   -0.3655 H         1 UNK         0.0786 
    102 H102       22.5743   -1.6808   -0.3631 H         1 UNK         0.0786 
    103 H103       23.6259   -0.8135    0.7574 H         1 UNK         0.0786 
    104 H104       24.8705   -2.6932   -0.4155 H         1 UNK         0.2977 
    105 H105       25.9152    1.4787   -4.6110 H         1 UNK         0.3127 
    106 H106       26.0542    4.3179   -5.1856 H         1 UNK         0.0770 
    107 H107       23.6609    2.4013   -5.1390 H         1 UNK         0.0814 
    108 H108       23.5782    4.1569   -5.1479 H         1 UNK         0.0814 
    109 H109       24.2587    3.3231   -3.7600 H         1 UNK         0.0814 
    110 H110       25.8133    1.4197   -7.1564 H         1 UNK         0.2983 
    111 H111       24.7086    2.8646   -9.4918 H         1 UNK         0.0947 
    112 H112       24.5568    0.5774  -10.4681 H         1 UNK         0.0806 
    113 H113       23.7224    0.6753   -8.9263 H         1 UNK         0.0806 
    114 H114       25.2957   -0.1072   -9.0266 H         1 UNK         0.0806 
    115 H115       27.5332    0.7396   -8.7437 H         1 UNK         0.3000 
    116 H116       28.8608    1.6295  -11.2582 H         1 UNK         0.0850 
    117 H117       30.2627   -0.3910  -10.8919 H         1 UNK         0.0810 
    118 H118       28.5581   -0.8137  -10.9208 H         1 UNK         0.0810 
    119 H119       29.4213   -0.7356   -9.3861 H         1 UNK         0.0810 
    120 H120       29.3864    1.3659   -7.7517 H         1 UNK         0.3040 
    121 H121       30.8451    2.1596   -6.2848 H         1 UNK         0.0766 
    122 H122       30.4438    4.4320   -7.1660 H         1 UNK         0.0812 
    123 H123       31.7329    4.2368   -8.3513 H         1 UNK         0.0812 
    124 H124       32.1063    4.2412   -6.6361 H         1 UNK         0.0812 
    125 H125       32.5358    2.1909   -9.4092 H         1 UNK         0.3205 
    126 H126       34.7957    0.5387   -8.3559 H         1 UNK         0.0754 
    127 H127       35.7722    0.9748  -10.6216 H         1 UNK         0.0769 
    128 H128       35.4598    2.4729   -9.7583 H         1 UNK         0.0769 
    129 H129       34.3771    1.9577  -11.0491 H         1 UNK         0.0769 
    130 H130       33.4109   -1.2485   -7.9268 H         1 UNK         0.2981 
    131 H131       31.5111   -2.3813   -9.5715 H         1 UNK         0.0541 
    132 H132       32.8596   -4.6603  -11.9389 H         1 UNK         0.3459 
    133 H133       31.4224   -4.0264  -11.1821 H         1 UNK         0.3459 
    134 H134       33.2926   -3.9007   -7.6007 H         1 UNK         0.0612 
    135 H135       31.7426   -4.4272   -8.1921 H         1 UNK         0.0612 
    136 H136       33.4911   -1.7395   -5.7036 H         1 UNK         0.0624 
    137 H137       33.3936   -3.4472   -5.3419 H         1 UNK         0.0624 
@<TRIPOS>BOND
     1    1    2 1    
     2    1   72 1    
     3    1   73 1    
     4    1   74 1    
     5    2    3 2    
     6    2    4 am   BACKBONE|DICT|INTERRES
     7    4    5 1    
     8    4   75 1    
     9    5    6 1    
    10    5   35 1    
    11    5   76 1    
    12    6    7 1    
    13    6   77 1    
    14    6   78 1    
    15    7    8 1    
    16    8    9 1    
    17    8   79 1    
    18    8   80 1    
    19    9   10 ar   
    20    9   14 ar   
    21   10   11 ar   
    22   10   81 1    
    23   11   12 ar   
    24   11   71 1    
    25   12   13 ar   
    26   12   82 1    
    27   13   14 ar   
    28   13   15 1    
    29   14   83 1    
    30   15   16 1    
    31   15   84 1    
    32   15   85 1    
    33   16   17 1    
    34   17   18 1    
    35   17   86 1    
    36   17   87 1    
    37   18   19 1    
    38   18   37 1    
    39   18   88 1    
    40   19   20 am   BACKBONE|DICT|INTERRES
    41   19   89 1    
    42   20   21 2    
    43   20   22 1    
    44   22   23 1    
    45   22   24 1    
    46   22   90 1    
    47   23   91 1    
    48   23   92 1    
    49   23   93 1    
    50   24   25 am   BACKBONE|DICT|INTERRES
    51   24   94 1    
    52   25   26 2    
    53   25   27 1    
    54   27   28 1    
    55   27   29 1    
    56   27   95 1    
    57   28   96 1    
    58   28   97 1    
    59   28   98 1    
    60   29   30 am   BACKBONE|DICT|INTERRES
    61   29   99 1    
    62   30   31 2    
    63   30   32 1    
    64   32   33 1    
    65   32   34 1    
    66   32  100 1    
    67   33  101 1    
    68   33  102 1    
    69   33  103 1    
    70   34   35 am   BACKBONE|DICT|INTERRES
    71   34  104 1    
    72   35   36 2    
    73   37   38 2    
    74   37   39 am   BACKBONE|DICT|INTERRES
    75   39   40 1    
    76   39  105 1    
    77   40   41 1    
    78   40   42 1    
    79   40  106 1    
    80   41  107 1    
    81   41  108 1    
    82   41  109 1    
    83   42   43 2    
    84   42   44 am   BACKBONE|DICT|INTERRES
    85   44   45 1    
    86   44  110 1    
    87   45   46 1    
    88   45   47 1    
    89   45  111 1    
    90   46  112 1    
    91   46  113 1    
    92   46  114 1    
    93   47   48 2    
    94   47   49 am   BACKBONE|DICT|INTERRES
    95   49   50 1    
    96   49  115 1    
    97   50   51 1    
    98   50   52 1    
    99   50  116 1    
   100   51  117 1    
   101   51  118 1    
   102   51  119 1    
   103   52   53 2    
   104   52   54 am   BACKBONE|DICT|INTERRES
   105   54   55 1    
   106   54  120 1    
   107   55   56 1    
   108   55   57 1    
   109   55  121 1    
   110   56  122 1    
   111   56  123 1    
   112   56  124 1    
   113   57   58 2    
   114   57   59 am   BACKBONE|DICT|INTERRES
   115   59   60 1    
   116   59  125 1    
   117   60   61 1    
   118   60   62 1    
   119   60  126 1    
   120   61  127 1    
   121   61  128 1    
   122   61  129 1    
   123   62   63 2    
   124   62   64 am   BACKBONE|DICT|INTERRES
   125   64   65 1    
   126   64  130 1    
   127   65   66 1    
   128   65   69 1    
   129   65  131 1    
   130   66   67 am   BACKBONE|DICT|INTERRES
   131   66   68 2    
   132   67  132 1    
   133   67  133 1    
   134   69   70 1    
   135   69  134 1    
   136   69  135 1    
   137   70   71 1    
   138   71  136 1    
   139   71  137 1    
@<TRIPOS>SUBSTRUCTURE
     1 UNK         1 GROUP             0       ****    0 ROOT    
