@<TRIPOS>MOLECULE
3R137
137   139    1
SMALL
USER_CHARGES


@<TRIPOS>ATOM
      1 CA         31.5281   -4.4081   -4.8721 C.3       0 UNK        -0.2020 
      2 C          30.2896   -5.1294   -4.3625 C.2       0 UNK         0.4855 
      3 O          30.0588   -6.2838   -4.7217 O.2       0 UNK        -0.5197 
      4 N          29.4950   -4.4576   -3.5205 N.am      1 UNK        -0.4892 
      5 CA         28.2759   -5.0006   -2.9069 C.3       1 UNK         0.0835 
      6 C6         27.8485   -4.1656   -1.6730 C.3       12 UNK        -0.0855 
      7 S7         28.8291   -4.5014   -0.1690 S.3       12 UNK        -0.2931 
      8 C8         30.4631   -3.7510   -0.4993 C.3       12 UNK         0.0378 
      9 C9         30.4425   -2.2985   -0.9739 C.ar      12 UNK        -0.0802 
     10 C10        31.4378   -1.8625   -1.8535 C.ar      12 UNK        -0.0944 
     11 C11        31.4790   -0.5352   -2.2879 C.ar      12 UNK        -0.0787 
     12 C12        30.5070    0.3644   -1.8418 C.ar      12 UNK        -0.0862 
     13 C13        29.4963   -0.0576   -0.9698 C.ar      12 UNK        -0.0733 
     14 C14        29.4818   -1.3833   -0.5261 C.ar      12 UNK        -0.0832 
     15 C15        28.4299    0.9154   -0.4814 C.3       12 UNK         0.0240 
     16 S16        26.8862    0.7976   -1.4498 S.3       12 UNK        -0.2522 
     17 C17        27.3838    1.5596   -3.0291 C.3       12 UNK        -0.0967 
     18 CA         27.1523    0.6005   -4.2370 C.3       5 UNK         0.0660 
     19 N          25.7357    0.4735   -4.6036 N.am      5 UNK        -0.4015 
     20 C          24.9756    1.4393   -5.1486 C.2       4 UNK         0.4946 
     21 O          25.3783    2.5896   -5.3343 O.2       4 UNK        -0.5353 
     22 CA         23.5427    1.0851   -5.5922 C.3       4 UNK         0.0277 
     23 CB         23.2473    1.6355   -6.9996 C.3       4 UNK        -0.1981 
     24 N          23.2905   -0.3581   -5.5867 N.am      4 UNK        -0.4209 
     25 C          22.5854   -1.0082   -4.6519 C.2       3 UNK         0.4942 
     26 O          22.0260   -0.4558   -3.7037 O.2       3 UNK        -0.5208 
     27 CA         22.4924   -2.5409   -4.7833 C.3       3 UNK         0.0250 
     28 CB         21.2012   -2.9337   -5.5201 C.3       3 UNK        -0.1990 
     29 N          23.6372   -3.1924   -5.4369 N.am      3 UNK        -0.4232 
     30 C          24.9119   -3.1058   -5.0330 C.2       2 UNK         0.4993 
     31 O          25.2960   -2.3504   -4.1361 O.2       2 UNK        -0.5286 
     32 CA         25.9349   -3.9778   -5.7814 C.3       2 UNK         0.0209 
     33 CB         26.3860   -3.2905   -7.0780 C.3       2 UNK        -0.1931 
     34 N          27.1023   -4.2262   -4.9334 N.am      2 UNK        -0.4546 
     35 C          27.1013   -5.0847   -3.9039 C.2       1 UNK         0.5154 
     36 O          26.1999   -5.9011   -3.7027 O.2       1 UNK        -0.5181 
     37 C          27.9941    0.9218   -5.4947 C.2       5 UNK         0.5014 
     38 O          27.7699    0.3082   -6.5436 O.2       5 UNK        -0.5248 
     39 N          28.9343    1.8716   -5.3907 N.am      6 UNK        -0.4434 
     40 CA         29.8698    2.2780   -6.4408 C.3       6 UNK         0.0363 
     41 CB         30.8315    3.3352   -5.8788 C.3       6 UNK        -0.1936 
     42 C          29.2115    2.7826   -7.7339 C.2       6 UNK         0.5081 
     43 O          29.8233    2.6545   -8.7924 O.2       6 UNK        -0.5248 
     44 N          27.9745    3.2925   -7.6502 N.am      7 UNK        -0.4718 
     45 CA         27.1796    3.7140   -8.8079 C.3       7 UNK         0.0273 
     46 CB         25.9310    4.4663   -8.3226 C.3       7 UNK        -0.1935 
     47 C          26.7873    2.5551   -9.7453 C.2       7 UNK         0.5018 
     48 O          26.5209    2.8095  -10.9206 O.2       7 UNK        -0.5186 
     49 N          26.7706    1.3201   -9.2236 N.am      8 UNK        -0.4240 
     50 CA         26.5345    0.0967   -9.9905 C.3       8 UNK         0.0235 
     51 CB         25.3615   -0.6783   -9.3692 C.3       8 UNK        -0.2000 
     52 C          27.7958   -0.7776  -10.0650 C.2       8 UNK         0.4941 
     53 O          28.0797   -1.3239  -11.1313 O.2       8 UNK        -0.5273 
     54 N          28.5278   -0.9074   -8.9487 N.am      9 UNK        -0.4262 
     55 CA         29.7040   -1.7753   -8.8340 C.3       9 UNK         0.0264 
     56 CB         29.9595   -2.0891   -7.3506 C.3       9 UNK        -0.1955 
     57 C          30.9842   -1.2129   -9.4756 C.2       9 UNK         0.5031 
     58 O          31.8887   -1.9992   -9.7590 O.2       9 UNK        -0.5390 
     59 N          31.0707    0.1168   -9.6466 N.am      10 UNK        -0.4204 
     60 CA         32.2488    0.8735  -10.1038 C.3       10 UNK         0.0237 
     61 CB         32.6257    0.5021  -11.5545 C.3       10 UNK        -0.1985 
     62 C          33.4527    0.8021   -9.1369 C.2       10 UNK         0.4970 
     63 O          34.5823    1.0646   -9.5521 O.2       10 UNK        -0.4914 
     64 N          33.1943    0.4659   -7.8661 N.am      11 UNK        -0.4285 
     65 CA         34.1875    0.3235   -6.7901 C.3       11 UNK         0.1007 
     66 C          34.6673    1.6559   -6.1413 C.2       11 UNK         0.5703 
     67 N          34.2181    2.8194   -6.5953 N.am      11 UNK        -0.7361 
     68 O          35.4791    1.6350   -5.2192 O.2       11 UNK        -0.4986 
     69 C69        33.7328   -0.7314   -5.7455 C.3       12 UNK        -0.0947 
     70 S70        32.1205   -0.3762   -4.9605 S.3       12 UNK        -0.2240 
     71 C71        32.5860   -0.0823   -3.2280 C.3       12 UNK         0.0194 
     72 H72        31.4697   -3.3333   -4.7043 H         1 UNK         0.0906 
     73 H73        32.4163   -4.7852   -4.3662 H         1 UNK         0.0906 
     74 H74        31.6500   -4.5772   -5.9415 H         1 UNK         0.0906 
     75 H75        29.7411   -3.5175   -3.2433 H         1 UNK         0.3140 
     76 H76        28.4791   -6.0236   -2.5813 H         1 UNK         0.1085 
     77 H77        26.8165   -4.3926   -1.3956 H         1 UNK         0.0836 
     78 H78        27.8497   -3.0992   -1.9035 H         1 UNK         0.0836 
     79 H79        30.9878   -4.3799   -1.2196 H         1 UNK         0.0731 
     80 H80        31.0494   -3.7984    0.4191 H         1 UNK         0.0731 
     81 H81        32.1956   -2.5551   -2.1949 H         1 UNK         0.1312 
     82 H82        30.5460    1.3932   -2.1708 H         1 UNK         0.1406 
     83 H83        28.7126   -1.7016    0.1643 H         1 UNK         0.1631 
     84 H84        28.8024    1.9407   -0.5065 H         1 UNK         0.0717 
     85 H85        28.2003    0.7068    0.5647 H         1 UNK         0.0717 
     86 H86        26.8367    2.4953   -3.1526 H         1 UNK         0.0934 
     87 H87        28.4270    1.8478   -2.9275 H         1 UNK         0.0934 
     88 H88        27.4782   -0.3978   -3.9398 H         1 UNK         0.0739 
     89 H89        25.3480   -0.4572   -4.4755 H         1 UNK         0.3093 
     90 H90        22.8680    1.5850   -4.8943 H         1 UNK         0.0818 
     91 H91        23.2458    2.7259   -6.9966 H         1 UNK         0.0819 
     92 H92        23.9945    1.3153   -7.7249 H         1 UNK         0.0819 
     93 H93        22.2683    1.3167   -7.3575 H         1 UNK         0.0819 
     94 H94        23.7149   -0.8985   -6.3262 H         1 UNK         0.3041 
     95 H95        22.4377   -2.9406   -3.7684 H         1 UNK         0.0784 
     96 H96        20.3272   -2.4872   -5.0433 H         1 UNK         0.0793 
     97 H97        21.2113   -2.5999   -6.5586 H         1 UNK         0.0793 
     98 H98        21.0519   -4.0137   -5.5144 H         1 UNK         0.0793 
     99 H99        23.4145   -3.8178   -6.1985 H         1 UNK         0.3024 
    100 H100       25.4700   -4.9348   -6.0306 H         1 UNK         0.1171 
    101 H101       25.5482   -3.1754   -7.7656 H         1 UNK         0.0786 
    102 H102       26.7968   -2.2987   -6.8863 H         1 UNK         0.0786 
    103 H103       27.1434   -3.8775   -7.5978 H         1 UNK         0.0786 
    104 H104       27.8660   -3.5713   -5.0014 H         1 UNK         0.2977 
    105 H105       29.0302    2.3521   -4.5094 H         1 UNK         0.3127 
    106 H106       30.4527    1.3970   -6.7116 H         1 UNK         0.0770 
    107 H107       30.2968    4.2037   -5.4924 H         1 UNK         0.0814 
    108 H108       31.5129    3.6949   -6.6503 H         1 UNK         0.0814 
    109 H109       31.4433    2.9273   -5.0735 H         1 UNK         0.0814 
    110 H110       27.5231    3.3320   -6.7459 H         1 UNK         0.2983 
    111 H111       27.7879    4.4068   -9.3938 H         1 UNK         0.0947 
    112 H112       25.3383    4.8250   -9.1654 H         1 UNK         0.0806 
    113 H113       26.1983    5.3358   -7.7220 H         1 UNK         0.0806 
    114 H114       25.2861    3.8277   -7.7200 H         1 UNK         0.0806 
    115 H115       27.0225    1.2072   -8.2478 H         1 UNK         0.3000 
    116 H116       26.2604    0.3369  -11.0201 H         1 UNK         0.0850 
    117 H117       25.2669   -1.6726   -9.8082 H         1 UNK         0.0810 
    118 H118       24.4182   -0.1619   -9.5453 H         1 UNK         0.0810 
    119 H119       25.4819   -0.7965   -8.2929 H         1 UNK         0.0810 
    120 H120       28.2190   -0.4508   -8.0914 H         1 UNK         0.3040 
    121 H121       29.4858   -2.7183   -9.3403 H         1 UNK         0.0766 
    122 H122       30.0154   -1.1812   -6.7528 H         1 UNK         0.0812 
    123 H123       30.8996   -2.6254   -7.2171 H         1 UNK         0.0812 
    124 H124       29.1751   -2.7153   -6.9313 H         1 UNK         0.0812 
    125 H125       30.2779    0.6941   -9.3866 H         1 UNK         0.3205 
    126 H126       31.9477    1.9213  -10.1141 H         1 UNK         0.0754 
    127 H127       33.3816    1.1823  -11.9490 H         1 UNK         0.0769 
    128 H128       31.7615    0.5631  -12.2160 H         1 UNK         0.0769 
    129 H129       33.0321   -0.5071  -11.6248 H         1 UNK         0.0769 
    130 H130       32.2420    0.2716   -7.6012 H         1 UNK         0.2981 
    131 H131       35.0886   -0.0851   -7.2512 H         1 UNK         0.0541 
    132 H132       34.5473    3.6721   -6.1715 H         1 UNK         0.3459 
    133 H133       33.5848    2.8525   -7.3760 H         1 UNK         0.3459 
    134 H134       34.5033   -0.8772   -4.9874 H         1 UNK         0.0612 
    135 H135       33.6368   -1.6997   -6.2393 H         1 UNK         0.0612 
    136 H136       33.5033   -0.6189   -2.9832 H         1 UNK         0.0624 
    137 H137       32.8034    0.9779   -3.0903 H         1 UNK         0.0624 
@<TRIPOS>BOND
     1    1    2 1    
     2    1   72 1    
     3    1   73 1    
     4    1   74 1    
     5    2    3 2    
     6    2    4 am   BACKBONE|DICT|INTERRES
     7    4    5 1    
     8    4   75 1    
     9    5    6 1    
    10    5   35 1    
    11    5   76 1    
    12    6    7 1    
    13    6   77 1    
    14    6   78 1    
    15    7    8 1    
    16    8    9 1    
    17    8   79 1    
    18    8   80 1    
    19    9   10 ar   
    20    9   14 ar   
    21   10   11 ar   
    22   10   81 1    
    23   11   12 ar   
    24   11   71 1    
    25   12   13 ar   
    26   12   82 1    
    27   13   14 ar   
    28   13   15 1    
    29   14   83 1    
    30   15   16 1    
    31   15   84 1    
    32   15   85 1    
    33   16   17 1    
    34   17   18 1    
    35   17   86 1    
    36   17   87 1    
    37   18   19 1    
    38   18   37 1    
    39   18   88 1    
    40   19   20 am   BACKBONE|DICT|INTERRES
    41   19   89 1    
    42   20   21 2    
    43   20   22 1    
    44   22   23 1    
    45   22   24 1    
    46   22   90 1    
    47   23   91 1    
    48   23   92 1    
    49   23   93 1    
    50   24   25 am   BACKBONE|DICT|INTERRES
    51   24   94 1    
    52   25   26 2    
    53   25   27 1    
    54   27   28 1    
    55   27   29 1    
    56   27   95 1    
    57   28   96 1    
    58   28   97 1    
    59   28   98 1    
    60   29   30 am   BACKBONE|DICT|INTERRES
    61   29   99 1    
    62   30   31 2    
    63   30   32 1    
    64   32   33 1    
    65   32   34 1    
    66   32  100 1    
    67   33  101 1    
    68   33  102 1    
    69   33  103 1    
    70   34   35 am   BACKBONE|DICT|INTERRES
    71   34  104 1    
    72   35   36 2    
    73   37   38 2    
    74   37   39 am   BACKBONE|DICT|INTERRES
    75   39   40 1    
    76   39  105 1    
    77   40   41 1    
    78   40   42 1    
    79   40  106 1    
    80   41  107 1    
    81   41  108 1    
    82   41  109 1    
    83   42   43 2    
    84   42   44 am   BACKBONE|DICT|INTERRES
    85   44   45 1    
    86   44  110 1    
    87   45   46 1    
    88   45   47 1    
    89   45  111 1    
    90   46  112 1    
    91   46  113 1    
    92   46  114 1    
    93   47   48 2    
    94   47   49 am   BACKBONE|DICT|INTERRES
    95   49   50 1    
    96   49  115 1    
    97   50   51 1    
    98   50   52 1    
    99   50  116 1    
   100   51  117 1    
   101   51  118 1    
   102   51  119 1    
   103   52   53 2    
   104   52   54 am   BACKBONE|DICT|INTERRES
   105   54   55 1    
   106   54  120 1    
   107   55   56 1    
   108   55   57 1    
   109   55  121 1    
   110   56  122 1    
   111   56  123 1    
   112   56  124 1    
   113   57   58 2    
   114   57   59 am   BACKBONE|DICT|INTERRES
   115   59   60 1    
   116   59  125 1    
   117   60   61 1    
   118   60   62 1    
   119   60  126 1    
   120   61  127 1    
   121   61  128 1    
   122   61  129 1    
   123   62   63 2    
   124   62   64 am   BACKBONE|DICT|INTERRES
   125   64   65 1    
   126   64  130 1    
   127   65   66 1    
   128   65   69 1    
   129   65  131 1    
   130   66   67 am   BACKBONE|DICT|INTERRES
   131   66   68 2    
   132   67  132 1    
   133   67  133 1    
   134   69   70 1    
   135   69  134 1    
   136   69  135 1    
   137   70   71 1    
   138   71  136 1    
   139   71  137 1    
@<TRIPOS>SUBSTRUCTURE
     1 UNK         1 GROUP             0       ****    0 ROOT    
