@<TRIPOS>MOLECULE
3R137
137   139    1
SMALL
USER_CHARGES


@<TRIPOS>ATOM
      1 CA         30.4063    1.1720    0.3118 C.3       0 UNK        -0.2020 
      2 C          29.5604    0.1925   -0.4878 C.2       0 UNK         0.4855 
      3 O          28.7251    0.6208   -1.2816 O.2       0 UNK        -0.5197 
      4 N          29.7826   -1.1128   -0.2850 N.am      1 UNK        -0.4892 
      5 CA         29.1136   -2.2350   -0.9594 C.3       1 UNK         0.0835 
      6 C6         29.6850   -3.5912   -0.4765 C.3       12 UNK        -0.0855 
      7 S7         31.4907   -3.7098   -0.7320 S.3       12 UNK        -0.2931 
      8 C8         31.6240   -5.0340   -1.9724 C.3       12 UNK         0.0378 
      9 C9         31.0173   -4.6388   -3.3113 C.ar      12 UNK        -0.0802 
     10 C10        31.7037   -3.7739   -4.1687 C.ar      12 UNK        -0.0944 
     11 C11        31.1754   -3.4394   -5.4242 C.ar      12 UNK        -0.0787 
     12 C12        29.9515   -3.9957   -5.8106 C.ar      12 UNK        -0.0862 
     13 C13        29.2548   -4.8626   -4.9627 C.ar      12 UNK        -0.0733 
     14 C14        29.7905   -5.1734   -3.7109 C.ar      12 UNK        -0.0832 
     15 C15        27.9492   -5.5074   -5.4060 C.3       12 UNK         0.0240 
     16 S16        26.5933   -4.3024   -5.5311 S.3       12 UNK        -0.2522 
     17 C17        26.5673   -3.9666   -7.3244 C.3       12 UNK        -0.0967 
     18 CA         26.3100   -2.4887   -7.6965 C.3       5 UNK         0.0660 
     19 N          25.0638   -1.9631   -7.1354 N.am      5 UNK        -0.4015 
     20 C          24.4317   -0.8849   -7.6160 C.2       4 UNK         0.4946 
     21 O          24.8669   -0.2020   -8.5454 O.2       4 UNK        -0.5353 
     22 CA         23.1093   -0.4999   -6.9341 C.3       4 UNK         0.0277 
     23 CB         22.0447   -1.5966   -7.1099 C.3       4 UNK        -0.1981 
     24 N          23.2944   -0.2082   -5.5118 N.am      4 UNK        -0.4209 
     25 C          23.9142    0.8851   -5.0476 C.2       3 UNK         0.4942 
     26 O          24.3368    1.7878   -5.7683 O.2       3 UNK        -0.5208 
     27 CA         24.0957    1.0128   -3.5244 C.3       3 UNK         0.0250 
     28 CB         22.9352    1.8196   -2.9185 C.3       3 UNK        -0.1990 
     29 N          24.2578   -0.2374   -2.7693 N.am      3 UNK        -0.4232 
     30 C          25.1600   -1.1958   -3.0191 C.2       2 UNK         0.4993 
     31 O          25.8144   -1.2787   -4.0605 O.2       2 UNK        -0.5286 
     32 CA         25.3864   -2.2331   -1.9146 C.3       2 UNK         0.0209 
     33 CB         24.6596   -3.5500   -2.2289 C.3       2 UNK        -0.1931 
     34 N          26.8284   -2.4642   -1.8364 N.am      2 UNK        -0.4546 
     35 C          27.5819   -2.1974   -0.7630 C.2       1 UNK         0.5154 
     36 O          27.1193   -1.9377    0.3517 O.2       1 UNK        -0.5181 
     37 C          27.5190   -1.5735   -7.4248 C.2       5 UNK         0.5014 
     38 O          28.3991   -1.4958   -8.2808 O.2       5 UNK        -0.5248 
     39 N          27.5125   -0.8600   -6.2889 N.am      6 UNK        -0.4434 
     40 CA         28.5085    0.1512   -5.9266 C.3       6 UNK         0.0363 
     41 CB         28.4397    0.4072   -4.4165 C.3       6 UNK        -0.1936 
     42 C          28.3811    1.4727   -6.7104 C.2       6 UNK         0.5081 
     43 O          29.2805    2.3110   -6.6086 O.2       6 UNK        -0.5248 
     44 N          27.2897    1.6458   -7.4695 N.am      7 UNK        -0.4718 
     45 CA         27.1450    2.7017   -8.4711 C.3       7 UNK         0.0273 
     46 CB         25.7042    3.2359   -8.4667 C.3       7 UNK        -0.1935 
     47 C          27.5315    2.1871   -9.8666 C.2       7 UNK         0.5018 
     48 O          28.1467    2.9362  -10.6260 O.2       7 UNK        -0.5186 
     49 N          27.1688    0.9326  -10.1850 N.am      8 UNK        -0.4240 
     50 CA         27.4773    0.2665  -11.4568 C.3       8 UNK         0.0235 
     51 CB         26.7365   -1.0780  -11.5354 C.3       8 UNK        -0.2000 
     52 C          28.9869    0.0725  -11.6863 C.2       8 UNK         0.4941 
     53 O          29.4769    0.3782  -12.7745 O.2       8 UNK        -0.5273 
     54 N          29.6935   -0.3944  -10.6517 N.am      9 UNK        -0.4262 
     55 CA         31.1490   -0.3714  -10.5417 C.3       9 UNK         0.0264 
     56 CB         31.6648   -1.7959  -10.2821 C.3       9 UNK        -0.1955 
     57 C          31.4509    0.5472   -9.3569 C.2       9 UNK         0.5031 
     58 O          30.8346    0.3666   -8.3100 O.2       9 UNK        -0.5390 
     59 N          32.3439    1.5281   -9.5347 N.am      10 UNK        -0.4204 
     60 CA         32.5472    2.6740   -8.6352 C.3       10 UNK         0.0237 
     61 CB         33.3296    3.7607   -9.3986 C.3       10 UNK        -0.1985 
     62 C          33.1732    2.3523   -7.2571 C.2       10 UNK         0.4970 
     63 O          34.1777    2.9618   -6.8833 O.2       10 UNK        -0.4914 
     64 N          32.5624    1.4247   -6.5153 N.am      11 UNK        -0.4285 
     65 CA         32.8784    1.1132   -5.1138 C.3       11 UNK         0.1007 
     66 C          32.2850    2.1373   -4.1054 C.2       11 UNK         0.5703 
     67 N          31.2732    2.9195   -4.4656 N.am      11 UNK        -0.7361 
     68 O          32.7638    2.2331   -2.9780 O.2       11 UNK        -0.4986 
     69 C69        32.4814   -0.3351   -4.7273 C.3       12 UNK        -0.0947 
     70 S70        33.3167   -1.5838   -5.7620 S.3       12 UNK        -0.2240 
     71 C71        31.8983   -2.5274   -6.4198 C.3       12 UNK         0.0194 
     72 H72        30.9978    1.7907   -0.3632 H         1 UNK         0.0906 
     73 H73        29.7656    1.8268    0.9017 H         1 UNK         0.0906 
     74 H74        31.0896    0.6632    0.9915 H         1 UNK         0.0906 
     75 H75        30.4870   -1.3901    0.3835 H         1 UNK         0.3140 
     76 H76        29.3235   -2.1337   -2.0267 H         1 UNK         0.1085 
     77 H77        29.1875   -4.4209   -0.9811 H         1 UNK         0.0836 
     78 H78        29.4870   -3.7303    0.5883 H         1 UNK         0.0836 
     79 H79        32.6784   -5.2757   -2.1142 H         1 UNK         0.0731 
     80 H80        31.1570   -5.9406   -1.5841 H         1 UNK         0.0731 
     81 H81        32.6569   -3.3793   -3.8480 H         1 UNK         0.1312 
     82 H82        29.5466   -3.7592   -6.7844 H         1 UNK         0.1406 
     83 H83        29.2640   -5.8544   -3.0559 H         1 UNK         0.1631 
     84 H84        27.6461   -6.2771   -4.6946 H         1 UNK         0.0717 
     85 H85        28.0954   -6.0256   -6.3545 H         1 UNK         0.0717 
     86 H86        27.4921   -4.3101   -7.7906 H         1 UNK         0.0934 
     87 H87        25.7822   -4.5875   -7.7588 H         1 UNK         0.0934 
     88 H88        26.1780   -2.4804   -8.7800 H         1 UNK         0.0739 
     89 H89        24.7003   -2.4399   -6.3228 H         1 UNK         0.3093 
     90 H90        22.7401    0.4042   -7.4237 H         1 UNK         0.0818 
     91 H91        21.0778   -1.2714   -6.7255 H         1 UNK         0.0819 
     92 H92        21.9058   -1.8386   -8.1646 H         1 UNK         0.0819 
     93 H93        22.3136   -2.5201   -6.5959 H         1 UNK         0.0819 
     94 H94        22.9841   -0.9015   -4.8470 H         1 UNK         0.3041 
     95 H95        25.0143    1.5835   -3.3725 H         1 UNK         0.0784 
     96 H96        22.8034    2.7689   -3.4403 H         1 UNK         0.0793 
     97 H97        21.9907    1.2781   -2.9841 H         1 UNK         0.0793 
     98 H98        23.1174    2.0544   -1.8696 H         1 UNK         0.0793 
     99 H99        23.7433   -0.2877   -1.9016 H         1 UNK         0.3024 
    100 H100       25.0048   -1.8370   -0.9706 H         1 UNK         0.1171 
    101 H101       23.5807   -3.3982   -2.2777 H         1 UNK         0.0786 
    102 H102       24.8480   -4.2974   -1.4581 H         1 UNK         0.0786 
    103 H103       24.9721   -3.9711   -3.1833 H         1 UNK         0.0786 
    104 H104       27.2724   -2.6200   -2.7324 H         1 UNK         0.2977 
    105 H105       26.7728   -1.0239   -5.6059 H         1 UNK         0.3127 
    106 H106       29.4925   -0.2601   -6.1519 H         1 UNK         0.0770 
    107 H107       27.4880    0.8526   -4.1255 H         1 UNK         0.0814 
    108 H108       29.2264    1.0883   -4.0939 H         1 UNK         0.0814 
    109 H109       28.5653   -0.5165   -3.8525 H         1 UNK         0.0814 
    110 H110       26.5719    0.9332   -7.4562 H         1 UNK         0.2983 
    111 H111       27.8090    3.5355   -8.2319 H         1 UNK         0.0947 
    112 H112       25.5769    4.0215   -9.2126 H         1 UNK         0.0806 
    113 H113       25.4472    3.6642   -7.4979 H         1 UNK         0.0806 
    114 H114       24.9769    2.4543   -8.6874 H         1 UNK         0.0806 
    115 H115       26.6032    0.4121   -9.5241 H         1 UNK         0.3000 
    116 H116       27.1002    0.9073  -12.2567 H         1 UNK         0.0850 
    117 H117       26.8619   -1.5315  -12.5194 H         1 UNK         0.0810 
    118 H118       25.6661   -0.9558  -11.3674 H         1 UNK         0.0810 
    119 H119       27.1147   -1.7898  -10.8021 H         1 UNK         0.0810 
    120 H120       29.2115   -0.6033   -9.7773 H         1 UNK         0.3040 
    121 H121       31.6129    0.0260  -11.4468 H         1 UNK         0.0766 
    122 H122       32.7442   -1.8003  -10.1260 H         1 UNK         0.0812 
    123 H123       31.4528   -2.4509  -11.1270 H         1 UNK         0.0812 
    124 H124       31.2019   -2.2349   -9.3973 H         1 UNK         0.0812 
    125 H125       32.8391    1.5674  -10.4139 H         1 UNK         0.3205 
    126 H126       31.5586    3.0856   -8.4184 H         1 UNK         0.0754 
    127 H127       33.4395    4.6635   -8.7959 H         1 UNK         0.0769 
    128 H128       32.8154    4.0519  -10.3149 H         1 UNK         0.0769 
    129 H129       34.3313    3.4223   -9.6666 H         1 UNK         0.0769 
    130 H130       31.7580    0.9543   -6.9295 H         1 UNK         0.2981 
    131 H131       33.9621    1.1830   -5.0010 H         1 UNK         0.0541 
    132 H132       30.8116    2.7961   -5.3605 H         1 UNK         0.3459 
    133 H133       30.9093    3.5849   -3.8035 H         1 UNK         0.3459 
    134 H134       31.4005   -0.4654   -4.7887 H         1 UNK         0.0612 
    135 H135       32.7506   -0.5420   -3.6899 H         1 UNK         0.0612 
    136 H136       31.1851   -1.8280   -6.8567 H         1 UNK         0.0624 
    137 H137       32.2626   -3.1456   -7.2410 H         1 UNK         0.0624 
@<TRIPOS>BOND
     1    1    2 1    
     2    1   72 1    
     3    1   73 1    
     4    1   74 1    
     5    2    3 2    
     6    2    4 am   BACKBONE|DICT|INTERRES
     7    4    5 1    
     8    4   75 1    
     9    5    6 1    
    10    5   35 1    
    11    5   76 1    
    12    6    7 1    
    13    6   77 1    
    14    6   78 1    
    15    7    8 1    
    16    8    9 1    
    17    8   79 1    
    18    8   80 1    
    19    9   10 ar   
    20    9   14 ar   
    21   10   11 ar   
    22   10   81 1    
    23   11   12 ar   
    24   11   71 1    
    25   12   13 ar   
    26   12   82 1    
    27   13   14 ar   
    28   13   15 1    
    29   14   83 1    
    30   15   16 1    
    31   15   84 1    
    32   15   85 1    
    33   16   17 1    
    34   17   18 1    
    35   17   86 1    
    36   17   87 1    
    37   18   19 1    
    38   18   37 1    
    39   18   88 1    
    40   19   20 am   BACKBONE|DICT|INTERRES
    41   19   89 1    
    42   20   21 2    
    43   20   22 1    
    44   22   23 1    
    45   22   24 1    
    46   22   90 1    
    47   23   91 1    
    48   23   92 1    
    49   23   93 1    
    50   24   25 am   BACKBONE|DICT|INTERRES
    51   24   94 1    
    52   25   26 2    
    53   25   27 1    
    54   27   28 1    
    55   27   29 1    
    56   27   95 1    
    57   28   96 1    
    58   28   97 1    
    59   28   98 1    
    60   29   30 am   BACKBONE|DICT|INTERRES
    61   29   99 1    
    62   30   31 2    
    63   30   32 1    
    64   32   33 1    
    65   32   34 1    
    66   32  100 1    
    67   33  101 1    
    68   33  102 1    
    69   33  103 1    
    70   34   35 am   BACKBONE|DICT|INTERRES
    71   34  104 1    
    72   35   36 2    
    73   37   38 2    
    74   37   39 am   BACKBONE|DICT|INTERRES
    75   39   40 1    
    76   39  105 1    
    77   40   41 1    
    78   40   42 1    
    79   40  106 1    
    80   41  107 1    
    81   41  108 1    
    82   41  109 1    
    83   42   43 2    
    84   42   44 am   BACKBONE|DICT|INTERRES
    85   44   45 1    
    86   44  110 1    
    87   45   46 1    
    88   45   47 1    
    89   45  111 1    
    90   46  112 1    
    91   46  113 1    
    92   46  114 1    
    93   47   48 2    
    94   47   49 am   BACKBONE|DICT|INTERRES
    95   49   50 1    
    96   49  115 1    
    97   50   51 1    
    98   50   52 1    
    99   50  116 1    
   100   51  117 1    
   101   51  118 1    
   102   51  119 1    
   103   52   53 2    
   104   52   54 am   BACKBONE|DICT|INTERRES
   105   54   55 1    
   106   54  120 1    
   107   55   56 1    
   108   55   57 1    
   109   55  121 1    
   110   56  122 1    
   111   56  123 1    
   112   56  124 1    
   113   57   58 2    
   114   57   59 am   BACKBONE|DICT|INTERRES
   115   59   60 1    
   116   59  125 1    
   117   60   61 1    
   118   60   62 1    
   119   60  126 1    
   120   61  127 1    
   121   61  128 1    
   122   61  129 1    
   123   62   63 2    
   124   62   64 am   BACKBONE|DICT|INTERRES
   125   64   65 1    
   126   64  130 1    
   127   65   66 1    
   128   65   69 1    
   129   65  131 1    
   130   66   67 am   BACKBONE|DICT|INTERRES
   131   66   68 2    
   132   67  132 1    
   133   67  133 1    
   134   69   70 1    
   135   69  134 1    
   136   69  135 1    
   137   70   71 1    
   138   71  136 1    
   139   71  137 1    
@<TRIPOS>SUBSTRUCTURE
     1 UNK         1 GROUP             0       ****    0 ROOT    
