@<TRIPOS>MOLECULE
3R137
137   139    1
SMALL
USER_CHARGES


@<TRIPOS>ATOM
      1 CA         29.4315    1.0569   -0.8849 C.3       0 UNK        -0.2020 
      2 C          28.8875   -0.2700   -1.3910 C.2       0 UNK         0.4855 
      3 O          28.4883   -0.3637   -2.5506 O.2       0 UNK        -0.5197 
      4 N          28.8612   -1.2963   -0.5316 N.am      1 UNK        -0.4892 
      5 CA         28.3797   -2.6475   -0.8413 C.3       1 UNK         0.0835 
      6 C6         29.0221   -3.7194    0.0792 C.3       12 UNK        -0.0855 
      7 S7         30.8468   -3.7280    0.0329 S.3       12 UNK        -0.2931 
      8 C8         31.1947   -5.1113   -1.0991 C.3       12 UNK         0.0378 
      9 C9         31.0988   -4.6825   -2.5556 C.ar      12 UNK        -0.0802 
     10 C10        32.1605   -3.9903   -3.1444 C.ar      12 UNK        -0.0944 
     11 C11        32.1036   -3.6058   -4.4864 C.ar      12 UNK        -0.0787 
     12 C12        30.9665   -3.9091   -5.2412 C.ar      12 UNK        -0.0862 
     13 C13        29.8974   -4.6054   -4.6648 C.ar      12 UNK        -0.0733 
     14 C14        29.9717   -4.9941   -3.3224 C.ar      12 UNK        -0.0832 
     15 C15        28.6736   -4.9632   -5.4996 C.3       12 UNK         0.0240 
     16 S16        27.1670   -4.1170   -4.9243 S.3       12 UNK        -0.2522 
     17 C17        27.5597   -2.3764   -5.2919 C.3       12 UNK        -0.0967 
     18 CA         26.7575   -1.8092   -6.4879 C.3       5 UNK         0.0660 
     19 N          25.3073   -1.8848   -6.3060 N.am      5 UNK        -0.4015 
     20 C          24.4128   -1.8196   -7.3028 C.2       4 UNK         0.4946 
     21 O          24.7162   -1.7837   -8.4955 O.2       4 UNK        -0.5353 
     22 CA         22.9243   -1.7742   -6.9116 C.3       4 UNK         0.0277 
     23 CB         22.3353   -3.1938   -6.8788 C.3       4 UNK        -0.1981 
     24 N          22.6819   -1.1192   -5.6237 N.am      4 UNK        -0.4209 
     25 C          22.8777    0.1853   -5.3799 C.2       3 UNK         0.4942 
     26 O          23.2309    0.9979   -6.2335 O.2       3 UNK        -0.5208 
     27 CA         22.7064    0.6447   -3.9194 C.3       3 UNK         0.0250 
     28 CB         21.2387    0.9980   -3.6314 C.3       3 UNK        -0.1990 
     29 N          23.1803   -0.3430   -2.9394 N.am      3 UNK        -0.4232 
     30 C          24.4381   -0.8014   -2.8836 C.2       2 UNK         0.4993 
     31 O          25.3325   -0.4232   -3.6436 O.2       2 UNK        -0.5286 
     32 CA         24.7320   -1.9149   -1.8751 C.3       2 UNK         0.0209 
     33 CB         24.1348   -3.2515   -2.3621 C.3       2 UNK        -0.1931 
     34 N          26.1817   -2.0291   -1.7343 N.am      2 UNK        -0.4546 
     35 C          26.8366   -2.6938   -0.7797 C.2       1 UNK         0.5154 
     36 O          26.2695   -3.2947    0.1357 O.2       1 UNK        -0.5181 
     37 C          27.1623   -0.3527   -6.7594 C.2       5 UNK         0.5014 
     38 O          27.7930   -0.0840   -7.7804 O.2       5 UNK        -0.5248 
     39 N          26.7565    0.5587   -5.8621 N.am      6 UNK        -0.4434 
     40 CA         27.0710    1.9918   -5.8776 C.3       6 UNK         0.0363 
     41 CB         26.4682    2.6449   -4.6241 C.3       6 UNK        -0.1936 
     42 C          26.6190    2.7403   -7.1456 C.2       6 UNK         0.5081 
     43 O          27.1955    3.7768   -7.4756 O.2       6 UNK        -0.5248 
     44 N          25.6096    2.2043   -7.8431 N.am      7 UNK        -0.4718 
     45 CA         25.1451    2.6793   -9.1465 C.3       7 UNK         0.0273 
     46 CB         23.8008    2.0053   -9.4673 C.3       7 UNK        -0.1935 
     47 C          26.1463    2.4449  -10.2963 C.2       7 UNK         0.5018 
     48 O          26.0171    3.1081  -11.3267 O.2       7 UNK        -0.5186 
     49 N          27.0956    1.5122  -10.1273 N.am      8 UNK        -0.4240 
     50 CA         28.0640    1.1153  -11.1528 C.3       8 UNK         0.0235 
     51 CB         27.7607   -0.3243  -11.6027 C.3       8 UNK        -0.2000 
     52 C          29.5156    1.2332  -10.6666 C.2       8 UNK         0.4941 
     53 O          30.3528    1.7487  -11.4076 O.2       8 UNK        -0.5273 
     54 N          29.7982    0.7397   -9.4560 N.am      9 UNK        -0.4262 
     55 CA         31.1215    0.7187   -8.8364 C.3       9 UNK         0.0264 
     56 CB         31.2122   -0.5483   -7.9660 C.3       9 UNK        -0.1955 
     57 C          31.3068    1.9859   -7.9772 C.2       9 UNK         0.5031 
     58 O          30.3740    2.3355   -7.2558 O.2       9 UNK        -0.5390 
     59 N          32.4552    2.6832   -7.9766 N.am      10 UNK        -0.4204 
     60 CA         33.7107    2.5024   -8.7185 C.3       10 UNK         0.0237 
     61 CB         33.5470    2.8576  -10.2124 C.3       10 UNK        -0.1985 
     62 C          34.3991    1.1496   -8.4653 C.2       10 UNK         0.4970 
     63 O          34.7921    0.4708   -9.4152 O.2       10 UNK        -0.4914 
     64 N          34.5110    0.7781   -7.1838 N.am      11 UNK        -0.4285 
     65 CA         35.2387   -0.4124   -6.7200 C.3       11 UNK         0.1007 
     66 C          36.7639   -0.3237   -7.0077 C.2       11 UNK         0.5703 
     67 N          37.4065   -1.4452   -7.3042 N.am      11 UNK        -0.7361 
     68 O          37.3730    0.7418   -6.9237 O.2       11 UNK        -0.4986 
     69 C69        34.9897   -0.6821   -5.2133 C.3       12 UNK        -0.0947 
     70 S70        33.2573   -1.1070   -4.8308 S.3       12 UNK        -0.2240 
     71 C71        33.2940   -2.9028   -5.1202 C.3       12 UNK         0.0194 
     72 H72        29.7366    1.0020    0.1600 H         1 UNK         0.0906 
     73 H73        30.2965    1.3552   -1.4766 H         1 UNK         0.0906 
     74 H74        28.6714    1.8323   -0.9775 H         1 UNK         0.0906 
     75 H75        29.1962   -1.1639    0.4122 H         1 UNK         0.3140 
     76 H76        28.6629   -2.8871   -1.8690 H         1 UNK         0.1085 
     77 H77        28.7266   -3.5540    1.1173 H         1 UNK         0.0836 
     78 H78        28.6514   -4.7131   -0.1792 H         1 UNK         0.0836 
     79 H79        32.2035   -5.4766   -0.9001 H         1 UNK         0.0731 
     80 H80        30.5279   -5.9493   -0.8908 H         1 UNK         0.0731 
     81 H81        33.0376   -3.7553   -2.5565 H         1 UNK         0.1312 
     82 H82        30.9215   -3.6141   -6.2808 H         1 UNK         0.1406 
     83 H83        29.1488   -5.5375   -2.8779 H         1 UNK         0.1631 
     84 H84        28.5118   -6.0408   -5.4489 H         1 UNK         0.0717 
     85 H85        28.8339   -4.7274   -6.5529 H         1 UNK         0.0717 
     86 H86        27.3673   -1.8035   -4.3869 H         1 UNK         0.0934 
     87 H87        28.6302   -2.2721   -5.4754 H         1 UNK         0.0934 
     88 H88        27.0222   -2.3952   -7.3711 H         1 UNK         0.0739 
     89 H89        24.9807   -1.8601   -5.3510 H         1 UNK         0.3093 
     90 H90        22.4011   -1.2027   -7.6815 H         1 UNK         0.0818 
     91 H91        21.2630   -3.1751   -6.6833 H         1 UNK         0.0819 
     92 H92        22.4789   -3.6967   -7.8363 H         1 UNK         0.0819 
     93 H93        22.8073   -3.8112   -6.1133 H         1 UNK         0.0819 
     94 H94        22.3765   -1.7069   -4.8621 H         1 UNK         0.3041 
     95 H95        23.3051    1.5485   -3.7900 H         1 UNK         0.0784 
     96 H96        20.8723    1.7446   -4.3377 H         1 UNK         0.0793 
     97 H97        20.5876    0.1266   -3.7115 H         1 UNK         0.0793 
     98 H98        21.1198    1.4162   -2.6316 H         1 UNK         0.0793 
     99 H99        22.4961   -0.7018   -2.2882 H         1 UNK         0.3024 
    100 H100       24.3014   -1.6379   -0.9103 H         1 UNK         0.1171 
    101 H101       24.3222   -4.0570   -1.6523 H         1 UNK         0.0786 
    102 H102       24.5540   -3.5535   -3.3226 H         1 UNK         0.0786 
    103 H103       23.0532   -3.1834   -2.4833 H         1 UNK         0.0786 
    104 H104       26.7155   -1.4666   -2.3938 H         1 UNK         0.2977 
    105 H105       26.2332    0.2306   -5.0499 H         1 UNK         0.3127 
    106 H106       28.1569    2.0806   -5.8195 H         1 UNK         0.0770 
    107 H107       25.3803    2.5724   -4.6208 H         1 UNK         0.0814 
    108 H108       26.7273    3.7031   -4.5707 H         1 UNK         0.0814 
    109 H109       26.8391    2.1723   -3.7139 H         1 UNK         0.0814 
    110 H110       25.1337    1.4000   -7.4531 H         1 UNK         0.2983 
    111 H111       24.9815    3.7567   -9.0748 H         1 UNK         0.0947 
    112 H112       23.4122    2.3409  -10.4298 H         1 UNK         0.0806 
    113 H113       23.0484    2.2440   -8.7153 H         1 UNK         0.0806 
    114 H114       23.8961    0.9194   -9.5127 H         1 UNK         0.0806 
    115 H115       27.1560    1.0320   -9.2336 H         1 UNK         0.3000 
    116 H116       27.9757    1.7621  -12.0283 H         1 UNK         0.0850 
    117 H117       28.4775   -0.6600  -12.3534 H         1 UNK         0.0810 
    118 H118       26.7678   -0.3971  -12.0469 H         1 UNK         0.0810 
    119 H119       27.8046   -1.0263  -10.7687 H         1 UNK         0.0810 
    120 H120       29.0385    0.3978   -8.8669 H         1 UNK         0.3040 
    121 H121       31.8758    0.6457   -9.6160 H         1 UNK         0.0766 
    122 H122       32.2175   -0.6872   -7.5742 H         1 UNK         0.0812 
    123 H123       30.5337   -0.5050   -7.1126 H         1 UNK         0.0812 
    124 H124       30.9685   -1.4427   -8.5393 H         1 UNK         0.0812 
    125 H125       32.4701    3.4806   -7.3562 H         1 UNK         0.3205 
    126 H126       34.3941    3.2452   -8.3036 H         1 UNK         0.0754 
    127 H127       34.5191    2.8988  -10.7055 H         1 UNK         0.0769 
    128 H128       33.0842    3.8366  -10.3374 H         1 UNK         0.0769 
    129 H129       32.9467    2.1364  -10.7630 H         1 UNK         0.0769 
    130 H130       34.1610    1.3909   -6.4627 H         1 UNK         0.2981 
    131 H131       34.8505   -1.2629   -7.2842 H         1 UNK         0.0541 
    132 H132       36.9205   -2.3262   -7.3655 H         1 UNK         0.3459 
    133 H133       38.3987   -1.4085   -7.4789 H         1 UNK         0.3459 
    134 H134       35.2606    0.1952   -4.6230 H         1 UNK         0.0612 
    135 H135       35.6295   -1.4888   -4.8508 H         1 UNK         0.0612 
    136 H136       33.3207   -3.0907   -6.1946 H         1 UNK         0.0624 
    137 H137       34.2137   -3.3246   -4.7121 H         1 UNK         0.0624 
@<TRIPOS>BOND
     1    1    2 1    
     2    1   72 1    
     3    1   73 1    
     4    1   74 1    
     5    2    3 2    
     6    2    4 am   BACKBONE|DICT|INTERRES
     7    4    5 1    
     8    4   75 1    
     9    5    6 1    
    10    5   35 1    
    11    5   76 1    
    12    6    7 1    
    13    6   77 1    
    14    6   78 1    
    15    7    8 1    
    16    8    9 1    
    17    8   79 1    
    18    8   80 1    
    19    9   10 ar   
    20    9   14 ar   
    21   10   11 ar   
    22   10   81 1    
    23   11   12 ar   
    24   11   71 1    
    25   12   13 ar   
    26   12   82 1    
    27   13   14 ar   
    28   13   15 1    
    29   14   83 1    
    30   15   16 1    
    31   15   84 1    
    32   15   85 1    
    33   16   17 1    
    34   17   18 1    
    35   17   86 1    
    36   17   87 1    
    37   18   19 1    
    38   18   37 1    
    39   18   88 1    
    40   19   20 am   BACKBONE|DICT|INTERRES
    41   19   89 1    
    42   20   21 2    
    43   20   22 1    
    44   22   23 1    
    45   22   24 1    
    46   22   90 1    
    47   23   91 1    
    48   23   92 1    
    49   23   93 1    
    50   24   25 am   BACKBONE|DICT|INTERRES
    51   24   94 1    
    52   25   26 2    
    53   25   27 1    
    54   27   28 1    
    55   27   29 1    
    56   27   95 1    
    57   28   96 1    
    58   28   97 1    
    59   28   98 1    
    60   29   30 am   BACKBONE|DICT|INTERRES
    61   29   99 1    
    62   30   31 2    
    63   30   32 1    
    64   32   33 1    
    65   32   34 1    
    66   32  100 1    
    67   33  101 1    
    68   33  102 1    
    69   33  103 1    
    70   34   35 am   BACKBONE|DICT|INTERRES
    71   34  104 1    
    72   35   36 2    
    73   37   38 2    
    74   37   39 am   BACKBONE|DICT|INTERRES
    75   39   40 1    
    76   39  105 1    
    77   40   41 1    
    78   40   42 1    
    79   40  106 1    
    80   41  107 1    
    81   41  108 1    
    82   41  109 1    
    83   42   43 2    
    84   42   44 am   BACKBONE|DICT|INTERRES
    85   44   45 1    
    86   44  110 1    
    87   45   46 1    
    88   45   47 1    
    89   45  111 1    
    90   46  112 1    
    91   46  113 1    
    92   46  114 1    
    93   47   48 2    
    94   47   49 am   BACKBONE|DICT|INTERRES
    95   49   50 1    
    96   49  115 1    
    97   50   51 1    
    98   50   52 1    
    99   50  116 1    
   100   51  117 1    
   101   51  118 1    
   102   51  119 1    
   103   52   53 2    
   104   52   54 am   BACKBONE|DICT|INTERRES
   105   54   55 1    
   106   54  120 1    
   107   55   56 1    
   108   55   57 1    
   109   55  121 1    
   110   56  122 1    
   111   56  123 1    
   112   56  124 1    
   113   57   58 2    
   114   57   59 am   BACKBONE|DICT|INTERRES
   115   59   60 1    
   116   59  125 1    
   117   60   61 1    
   118   60   62 1    
   119   60  126 1    
   120   61  127 1    
   121   61  128 1    
   122   61  129 1    
   123   62   63 2    
   124   62   64 am   BACKBONE|DICT|INTERRES
   125   64   65 1    
   126   64  130 1    
   127   65   66 1    
   128   65   69 1    
   129   65  131 1    
   130   66   67 am   BACKBONE|DICT|INTERRES
   131   66   68 2    
   132   67  132 1    
   133   67  133 1    
   134   69   70 1    
   135   69  134 1    
   136   69  135 1    
   137   70   71 1    
   138   71  136 1    
   139   71  137 1    
@<TRIPOS>SUBSTRUCTURE
     1 UNK         1 GROUP             0       ****    0 ROOT    
