@<TRIPOS>MOLECULE
3R137
137   139    1
SMALL
USER_CHARGES


@<TRIPOS>ATOM
      1 CA         28.1220   -6.2441    0.1533 C.3       0 UNK        -0.2020 
      2 C          27.6595   -4.9013   -0.3904 C.2       0 UNK         0.4855 
      3 O          27.4375   -4.7796   -1.5948 O.2       0 UNK        -0.5197 
      4 N          27.5113   -3.9013    0.4905 N.am      1 UNK        -0.4892 
      5 CA         27.1116   -2.5039    0.2431 C.3       1 UNK         0.0835 
      6 C6         28.0685   -1.7233   -0.6961 C.3       12 UNK        -0.0855 
      7 S7         29.7343   -1.4747    0.0059 S.3       12 UNK        -0.2931 
      8 C8         30.7416   -2.7222   -0.8614 C.3       12 UNK         0.0378 
      9 C9         30.6806   -2.6014   -2.3796 C.ar      12 UNK        -0.0802 
     10 C10        31.1427   -1.4515   -3.0270 C.ar      12 UNK        -0.0944 
     11 C11        31.1109   -1.3621   -4.4225 C.ar      12 UNK        -0.0787 
     12 C12        30.6181   -2.4358   -5.1705 C.ar      12 UNK        -0.0862 
     13 C13        30.1294   -3.5824   -4.5345 C.ar      12 UNK        -0.0733 
     14 C14        30.1735   -3.6582   -3.1403 C.ar      12 UNK        -0.0832 
     15 C15        29.5813   -4.7657   -5.3274 C.3       12 UNK         0.0240 
     16 S16        28.4929   -4.3043   -6.7156 S.3       12 UNK        -0.2522 
     17 C17        27.0972   -3.4748   -5.8794 C.3       12 UNK        -0.0967 
     18 CA         26.6989   -2.1748   -6.6248 C.3       5 UNK         0.0660 
     19 N          25.2729   -1.8716   -6.4980 N.am      5 UNK        -0.4015 
     20 C          24.5372   -1.2930   -7.4590 C.2       4 UNK         0.4946 
     21 O          24.9624   -1.0253   -8.5829 O.2       4 UNK        -0.5353 
     22 CA         23.0758   -0.9448   -7.1223 C.3       4 UNK         0.0277 
     23 CB         22.1396   -2.0859   -7.5522 C.3       4 UNK        -0.1981 
     24 N          22.8523   -0.6425   -5.7074 N.am      4 UNK        -0.4209 
     25 C          23.3748    0.4083   -5.0602 C.2       3 UNK         0.4942 
     26 O          24.0899    1.2579   -5.5909 O.2       3 UNK        -0.5208 
     27 CA         23.0951    0.4903   -3.5499 C.3       3 UNK         0.0250 
     28 CB         21.7580    1.2021   -3.2894 C.3       3 UNK        -0.1990 
     29 N          23.1069   -0.8055   -2.8562 N.am      3 UNK        -0.4232 
     30 C          24.1216   -1.6814   -2.8710 C.2       2 UNK         0.4993 
     31 O          25.1304   -1.5561   -3.5709 O.2       2 UNK        -0.5286 
     32 CA         23.9893   -2.9224   -1.9769 C.3       2 UNK         0.0209 
     33 CB         23.7088   -4.1706   -2.8288 C.3       2 UNK        -0.1931 
     34 N          25.2299   -3.1194   -1.2294 N.am      2 UNK        -0.4546 
     35 C          25.6528   -2.3333   -0.2331 C.2       1 UNK         0.5154 
     36 O          24.9439   -1.4757    0.2968 O.2       1 UNK        -0.5181 
     37 C          27.5411   -0.9637   -6.1870 C.2       5 UNK         0.5014 
     38 O          28.5049   -0.6246   -6.8710 O.2       5 UNK        -0.5248 
     39 N          27.1414   -0.2967   -5.0931 N.am      6 UNK        -0.4434 
     40 CA         27.7943    0.9011   -4.5531 C.3       6 UNK         0.0363 
     41 CB         27.0517    1.3618   -3.2898 C.3       6 UNK        -0.1936 
     42 C          27.8878    2.0611   -5.5616 C.2       6 UNK         0.5081 
     43 O          28.8972    2.7648   -5.5866 O.2       6 UNK        -0.5248 
     44 N          26.8392    2.2266   -6.3781 N.am      7 UNK        -0.4718 
     45 CA         26.7558    3.2266   -7.4428 C.3       7 UNK         0.0273 
     46 CB         25.2723    3.5580   -7.6803 C.3       7 UNK        -0.1935 
     47 C          27.4273    2.7978   -8.7631 C.2       7 UNK         0.5018 
     48 O          27.4786    3.6164   -9.6835 O.2       7 UNK        -0.5186 
     49 N          27.8928    1.5441   -8.8737 N.am      8 UNK        -0.4240 
     50 CA         28.5007    1.0062  -10.0938 C.3       8 UNK         0.0235 
     51 CB         28.4463   -0.5316  -10.0662 C.3       8 UNK        -0.2000 
     52 C          29.9485    1.4865  -10.2812 C.2       8 UNK         0.4941 
     53 O          30.6129    1.8808   -9.3195 O.2       8 UNK        -0.5273 
     54 N          30.4319    1.3774  -11.5264 N.am      9 UNK        -0.4262 
     55 CA         31.7879    1.7441  -11.9526 C.3       9 UNK         0.0264 
     56 CB         31.8578    1.6989  -13.4883 C.3       9 UNK        -0.1955 
     57 C          32.9144    0.8898  -11.3377 C.2       9 UNK         0.5031 
     58 O          34.0772    1.2840  -11.4349 O.2       9 UNK        -0.5390 
     59 N          32.5657   -0.2389  -10.7015 N.am      10 UNK        -0.4204 
     60 CA         33.4697   -1.1598  -10.0028 C.3       10 UNK         0.0237 
     61 CB         32.6444   -2.3108   -9.4024 C.3       10 UNK        -0.1985 
     62 C          34.3350   -0.5020   -8.9103 C.2       10 UNK         0.4970 
     63 O          35.4599   -0.9534   -8.6910 O.2       10 UNK        -0.4914 
     64 N          33.8074    0.5490   -8.2706 N.am      11 UNK        -0.4285 
     65 CA         34.5161    1.3828   -7.2870 C.3       11 UNK         0.1007 
     66 C          35.0069    2.7390   -7.8754 C.2       11 UNK         0.5703 
     67 N          34.9579    2.9655   -9.1835 N.am      11 UNK        -0.7361 
     68 O          35.4666    3.6042   -7.1334 O.2       11 UNK        -0.4986 
     69 C69        33.6790    1.5692   -5.9938 C.3       12 UNK        -0.0947 
     70 S70        33.4092   -0.0114   -5.1246 S.3       12 UNK        -0.2240 
     71 C71        31.5960   -0.1007   -5.1199 C.3       12 UNK         0.0194 
     72 H72        29.0546   -6.5400   -0.3262 H         1 UNK         0.0906 
     73 H73        27.3747   -7.0093   -0.0543 H         1 UNK         0.0906 
     74 H74        28.2888   -6.2151    1.2299 H         1 UNK         0.0906 
     75 H75        27.6919   -4.1034    1.4645 H         1 UNK         0.3140 
     76 H76        27.1546   -2.0188    1.2201 H         1 UNK         0.1085 
     77 H77        27.6761   -0.7214   -0.8730 H         1 UNK         0.0836 
     78 H78        28.1234   -2.1914   -1.6796 H         1 UNK         0.0836 
     79 H79        31.7791   -2.6158   -0.5421 H         1 UNK         0.0731 
     80 H80        30.4263   -3.7143   -0.5361 H         1 UNK         0.0731 
     81 H81        31.5303   -0.6269   -2.4442 H         1 UNK         0.1312 
     82 H82        30.5951   -2.3686   -6.2497 H         1 UNK         0.1406 
     83 H83        29.8133   -4.5489   -2.6443 H         1 UNK         0.1631 
     84 H84        29.0283   -5.4431   -4.6743 H         1 UNK         0.0717 
     85 H85        30.4231   -5.3362   -5.7215 H         1 UNK         0.0717 
     86 H86        26.2661   -4.1819   -5.8834 H         1 UNK         0.0934 
     87 H87        27.3205   -3.2893   -4.8261 H         1 UNK         0.0934 
     88 H88        26.9042   -2.3294   -7.6867 H         1 UNK         0.0739 
     89 H89        24.8729   -1.9888   -5.5746 H         1 UNK         0.3093 
     90 H90        22.8147   -0.0529   -7.6963 H         1 UNK         0.0818 
     91 H91        22.2665   -2.3156   -8.6112 H         1 UNK         0.0819 
     92 H92        22.3353   -3.0027   -6.9946 H         1 UNK         0.0819 
     93 H93        21.0930   -1.8185   -7.4049 H         1 UNK         0.0819 
     94 H94        22.2778   -1.2879   -5.1851 H         1 UNK         0.3041 
     95 H95        23.8874    1.0950   -3.1065 H         1 UNK         0.0784 
     96 H96        21.7325    2.1762   -3.7805 H         1 UNK         0.0793 
     97 H97        20.9116    0.6256   -3.6648 H         1 UNK         0.0793 
     98 H98        21.6011    1.3760   -2.2246 H         1 UNK         0.0793 
     99 H99        22.3130   -0.9972   -2.2615 H         1 UNK         0.3024 
    100 H100       23.1702   -2.7812   -1.2681 H         1 UNK         0.1171 
    101 H101       24.5100   -4.3589   -3.5452 H         1 UNK         0.0786 
    102 H102       23.6041   -5.0589   -2.2055 H         1 UNK         0.0786 
    103 H103       22.7825   -4.0601   -3.3941 H         1 UNK         0.0786 
    104 H104       25.9074   -3.7775   -1.6101 H         1 UNK         0.2977 
    105 H105       26.3564   -0.6668   -4.5591 H         1 UNK         0.3127 
    106 H106       28.8076    0.6126   -4.2707 H         1 UNK         0.0770 
    107 H107       26.8941    0.5403   -2.5936 H         1 UNK         0.0814 
    108 H108       27.6184    2.1330   -2.7669 H         1 UNK         0.0814 
    109 H109       26.0764    1.7840   -3.5314 H         1 UNK         0.0814 
    110 H110       26.0208    1.6411   -6.2407 H         1 UNK         0.2983 
    111 H111       27.2579    4.1379   -7.1104 H         1 UNK         0.0947 
    112 H112       24.7177    2.6860   -8.0300 H         1 UNK         0.0806 
    113 H113       25.1573    4.3419   -8.4301 H         1 UNK         0.0806 
    114 H114       24.7939    3.9124   -6.7669 H         1 UNK         0.0806 
    115 H115       27.9089    0.9431   -8.0564 H         1 UNK         0.3000 
    116 H116       27.9098    1.3513  -10.9453 H         1 UNK         0.0850 
    117 H117       28.7183   -0.9520  -11.0349 H         1 UNK         0.0810 
    118 H118       27.4441   -0.8908   -9.8318 H         1 UNK         0.0810 
    119 H119       29.1335   -0.9504   -9.3306 H         1 UNK         0.0810 
    120 H120       29.8194    1.0281  -12.2504 H         1 UNK         0.3040 
    121 H121       31.9645    2.7736  -11.6337 H         1 UNK         0.0766 
    122 H122       31.6709    0.6951  -13.8720 H         1 UNK         0.0812 
    123 H123       32.8427    2.0048  -13.8447 H         1 UNK         0.0812 
    124 H124       31.1307    2.3739  -13.9402 H         1 UNK         0.0812 
    125 H125       31.5841   -0.4700  -10.6771 H         1 UNK         0.3205 
    126 H126       34.1498   -1.5744  -10.7496 H         1 UNK         0.0754 
    127 H127       31.9187   -1.9494   -8.6719 H         1 UNK         0.0769 
    128 H128       33.2883   -3.0289   -8.8922 H         1 UNK         0.0769 
    129 H129       32.1017   -2.8576  -10.1738 H         1 UNK         0.0769 
    130 H130       32.8831    0.8650   -8.5310 H         1 UNK         0.2981 
    131 H131       35.4367    0.8777   -6.9902 H         1 UNK         0.0541 
    132 H132       35.2908    3.8487   -9.5352 H         1 UNK         0.3459 
    133 H133       34.6361    2.2577   -9.8353 H         1 UNK         0.3459 
    134 H134       32.7232    2.0445   -6.2225 H         1 UNK         0.0612 
    135 H135       34.1884    2.2311   -5.2914 H         1 UNK         0.0612 
    136 H136       31.2280   -0.0613   -6.1469 H         1 UNK         0.0624 
    137 H137       31.1947    0.7772   -4.6118 H         1 UNK         0.0624 
@<TRIPOS>BOND
     1    1    2 1    
     2    1   72 1    
     3    1   73 1    
     4    1   74 1    
     5    2    3 2    
     6    2    4 am   BACKBONE|DICT|INTERRES
     7    4    5 1    
     8    4   75 1    
     9    5    6 1    
    10    5   35 1    
    11    5   76 1    
    12    6    7 1    
    13    6   77 1    
    14    6   78 1    
    15    7    8 1    
    16    8    9 1    
    17    8   79 1    
    18    8   80 1    
    19    9   10 ar   
    20    9   14 ar   
    21   10   11 ar   
    22   10   81 1    
    23   11   12 ar   
    24   11   71 1    
    25   12   13 ar   
    26   12   82 1    
    27   13   14 ar   
    28   13   15 1    
    29   14   83 1    
    30   15   16 1    
    31   15   84 1    
    32   15   85 1    
    33   16   17 1    
    34   17   18 1    
    35   17   86 1    
    36   17   87 1    
    37   18   19 1    
    38   18   37 1    
    39   18   88 1    
    40   19   20 am   BACKBONE|DICT|INTERRES
    41   19   89 1    
    42   20   21 2    
    43   20   22 1    
    44   22   23 1    
    45   22   24 1    
    46   22   90 1    
    47   23   91 1    
    48   23   92 1    
    49   23   93 1    
    50   24   25 am   BACKBONE|DICT|INTERRES
    51   24   94 1    
    52   25   26 2    
    53   25   27 1    
    54   27   28 1    
    55   27   29 1    
    56   27   95 1    
    57   28   96 1    
    58   28   97 1    
    59   28   98 1    
    60   29   30 am   BACKBONE|DICT|INTERRES
    61   29   99 1    
    62   30   31 2    
    63   30   32 1    
    64   32   33 1    
    65   32   34 1    
    66   32  100 1    
    67   33  101 1    
    68   33  102 1    
    69   33  103 1    
    70   34   35 am   BACKBONE|DICT|INTERRES
    71   34  104 1    
    72   35   36 2    
    73   37   38 2    
    74   37   39 am   BACKBONE|DICT|INTERRES
    75   39   40 1    
    76   39  105 1    
    77   40   41 1    
    78   40   42 1    
    79   40  106 1    
    80   41  107 1    
    81   41  108 1    
    82   41  109 1    
    83   42   43 2    
    84   42   44 am   BACKBONE|DICT|INTERRES
    85   44   45 1    
    86   44  110 1    
    87   45   46 1    
    88   45   47 1    
    89   45  111 1    
    90   46  112 1    
    91   46  113 1    
    92   46  114 1    
    93   47   48 2    
    94   47   49 am   BACKBONE|DICT|INTERRES
    95   49   50 1    
    96   49  115 1    
    97   50   51 1    
    98   50   52 1    
    99   50  116 1    
   100   51  117 1    
   101   51  118 1    
   102   51  119 1    
   103   52   53 2    
   104   52   54 am   BACKBONE|DICT|INTERRES
   105   54   55 1    
   106   54  120 1    
   107   55   56 1    
   108   55   57 1    
   109   55  121 1    
   110   56  122 1    
   111   56  123 1    
   112   56  124 1    
   113   57   58 2    
   114   57   59 am   BACKBONE|DICT|INTERRES
   115   59   60 1    
   116   59  125 1    
   117   60   61 1    
   118   60   62 1    
   119   60  126 1    
   120   61  127 1    
   121   61  128 1    
   122   61  129 1    
   123   62   63 2    
   124   62   64 am   BACKBONE|DICT|INTERRES
   125   64   65 1    
   126   64  130 1    
   127   65   66 1    
   128   65   69 1    
   129   65  131 1    
   130   66   67 am   BACKBONE|DICT|INTERRES
   131   66   68 2    
   132   67  132 1    
   133   67  133 1    
   134   69   70 1    
   135   69  134 1    
   136   69  135 1    
   137   70   71 1    
   138   71  136 1    
   139   71  137 1    
@<TRIPOS>SUBSTRUCTURE
     1 UNK         1 GROUP             0       ****    0 ROOT    
