@<TRIPOS>MOLECULE
3R137
137   139    1
SMALL
USER_CHARGES


@<TRIPOS>ATOM
      1 CA         26.6436   -8.5220   -4.9260 C.3       0 UNK        -0.2020 
      2 C          26.6105   -7.5929   -3.7216 C.2       0 UNK         0.4855 
      3 O          25.7771   -7.7729   -2.8328 O.2       0 UNK        -0.5197 
      4 N          27.5154   -6.6065   -3.6811 N.am      1 UNK        -0.4892 
      5 CA         27.5743   -5.5717   -2.6430 C.3       1 UNK         0.0835 
      6 C6         28.9760   -4.9154   -2.6013 C.3       12 UNK        -0.0855 
      7 S7         29.3621   -4.2104   -0.9687 S.3       12 UNK        -0.2931 
      8 C8         30.9693   -3.4205   -1.3051 C.3       12 UNK         0.0378 
      9 C9         30.8203   -2.0543   -1.9621 C.ar      12 UNK        -0.0802 
     10 C10        31.3714   -1.7990   -3.2221 C.ar      12 UNK        -0.0944 
     11 C11        31.2909   -0.5199   -3.7863 C.ar      12 UNK        -0.0787 
     12 C12        30.6300    0.4993   -3.0936 C.ar      12 UNK        -0.0862 
     13 C13        30.0574    0.2497   -1.8431 C.ar      12 UNK        -0.0733 
     14 C14        30.1686   -1.0242   -1.2796 C.ar      12 UNK        -0.0832 
     15 C15        29.3317    1.3467   -1.0789 C.3       12 UNK         0.0240 
     16 S16        27.5479    0.9975   -0.9784 S.3       12 UNK        -0.2522 
     17 C17        26.8262    2.1782   -2.1661 C.3       12 UNK        -0.0967 
     18 CA         27.2928    2.0171   -3.6352 C.3       5 UNK         0.0660 
     19 N          27.1286    0.6518   -4.1462 N.am      5 UNK        -0.4015 
     20 C          27.6408    0.2151   -5.3088 C.2       4 UNK         0.4946 
     21 O          28.3313    0.9082   -6.0558 O.2       4 UNK        -0.5353 
     22 CA         27.2931   -1.2188   -5.7498 C.3       4 UNK         0.0277 
     23 CB         28.3246   -2.1933   -5.1716 C.3       4 UNK        -0.1981 
     24 N          25.9515   -1.6608   -5.3608 N.am      4 UNK        -0.4209 
     25 C          24.8084   -0.9902   -5.5696 C.2       3 UNK         0.4942 
     26 O          24.7349    0.0376   -6.2434 O.2       3 UNK        -0.5208 
     27 CA         23.5446   -1.4961   -4.8504 C.3       3 UNK         0.0250 
     28 CB         22.6316   -2.2399   -5.8373 C.3       3 UNK        -0.1990 
     29 N          23.8022   -2.3552   -3.6882 N.am      3 UNK        -0.4232 
     30 C          24.5552   -2.0525   -2.6182 C.2       2 UNK         0.4993 
     31 O          25.1227   -0.9702   -2.4646 O.2       2 UNK        -0.5286 
     32 CA         24.7316   -3.1599   -1.5608 C.3       2 UNK         0.0209 
     33 CB         23.5046   -4.0929   -1.4593 C.3       2 UNK        -0.1931 
     34 N          25.9502   -3.9712   -1.7212 N.am      2 UNK        -0.4546 
     35 C          26.4299   -4.5483   -2.8352 C.2       1 UNK         0.5154 
     36 O          26.0043   -4.3234   -3.9722 O.2       1 UNK        -0.5181 
     37 C          26.5892    3.0702   -4.5168 C.2       5 UNK         0.5014 
     38 O          27.0858    4.1927   -4.6201 O.2       5 UNK        -0.5248 
     39 N          25.4499    2.7032   -5.1209 N.am      6 UNK        -0.4434 
     40 CA         24.6870    3.5595   -6.0285 C.3       6 UNK         0.0363 
     41 CB         23.1986    3.1773   -5.9693 C.3       6 UNK        -0.1936 
     42 C          25.2175    3.4596   -7.4654 C.2       6 UNK         0.5081 
     43 O          25.2882    4.4776   -8.1542 O.2       6 UNK        -0.5248 
     44 N          25.5772    2.2402   -7.8922 N.am      7 UNK        -0.4718 
     45 CA         26.1110    1.9503   -9.2241 C.3       7 UNK         0.0273 
     46 CB         26.1224    0.4307   -9.4532 C.3       7 UNK        -0.1935 
     47 C          27.5113    2.5378   -9.4590 C.2       7 UNK         0.5018 
     48 O          27.7912    2.9832  -10.5727 O.2       7 UNK        -0.5186 
     49 N          28.3678    2.5045   -8.4255 N.am      8 UNK        -0.4240 
     50 CA         29.7587    2.9794   -8.3537 C.3       8 UNK         0.0235 
     51 CB         29.8537    4.4954   -8.6093 C.3       8 UNK        -0.2000 
     52 C          30.7524    2.2021   -9.2361 C.2       8 UNK         0.4941 
     53 O          31.8362    1.8615   -8.7619 O.2       8 UNK        -0.5273 
     54 N          30.3630    1.8962  -10.4815 N.am      9 UNK        -0.4262 
     55 CA         31.1358    1.1651  -11.4934 C.3       9 UNK         0.0264 
     56 CB         30.3114    1.0783  -12.7875 C.3       9 UNK        -0.1955 
     57 C          31.5989   -0.2371  -11.0580 C.2       9 UNK         0.5031 
     58 O          32.6101   -0.7211  -11.5675 O.2       9 UNK        -0.5390 
     59 N          30.8926   -0.8396  -10.0911 N.am      10 UNK        -0.4204 
     60 CA         31.2595   -2.0835   -9.4083 C.3       10 UNK         0.0237 
     61 CB         30.1430   -2.4460   -8.4158 C.3       10 UNK        -0.1985 
     62 C          32.6230   -2.0261   -8.6883 C.2       10 UNK         0.4970 
     63 O          33.2659   -3.0668   -8.5478 O.2       10 UNK        -0.4914 
     64 N          33.0422   -0.8253   -8.2672 N.am      11 UNK        -0.4285 
     65 CA         34.3706   -0.5410   -7.7066 C.3       11 UNK         0.1007 
     66 C          35.4240   -0.1482   -8.7866 C.2       11 UNK         0.5703 
     67 N          35.1073   -0.1353  -10.0769 N.am      11 UNK        -0.7361 
     68 O          36.5727    0.1295   -8.4492 O.2       11 UNK        -0.4986 
     69 C69        34.2722    0.5139   -6.5695 C.3       12 UNK        -0.0947 
     70 S70        33.7476   -0.2125   -4.9832 S.3       12 UNK        -0.2240 
     71 C71        31.9354   -0.2326   -5.1344 C.3       12 UNK         0.0194 
     72 H72        27.4366   -8.2569   -5.6250 H         1 UNK         0.0906 
     73 H73        26.8063   -9.5499   -4.6029 H         1 UNK         0.0906 
     74 H74        25.6940   -8.4783   -5.4587 H         1 UNK         0.0906 
     75 H75        28.1465   -6.4834   -4.4598 H         1 UNK         0.3140 
     76 H76        27.4074   -6.0779   -1.6888 H         1 UNK         0.1085 
     77 H77        29.0985   -4.1624   -3.3777 H         1 UNK         0.0836 
     78 H78        29.7418   -5.6676   -2.7994 H         1 UNK         0.0836 
     79 H79        31.5851   -4.0859   -1.9124 H         1 UNK         0.0731 
     80 H80        31.4995   -3.2950   -0.3600 H         1 UNK         0.0731 
     81 H81        31.8902   -2.5844   -3.7547 H         1 UNK         0.1312 
     82 H82        30.5685    1.4871   -3.5282 H         1 UNK         0.1406 
     83 H83        29.7390   -1.2168   -0.3055 H         1 UNK         0.1631 
     84 H84        29.5057    2.3265   -1.5257 H         1 UNK         0.0717 
     85 H85        29.7346    1.3998   -0.0665 H         1 UNK         0.0717 
     86 H86        25.7416    2.0668   -2.1025 H         1 UNK         0.0934 
     87 H87        27.0445    3.1862   -1.8071 H         1 UNK         0.0934 
     88 H88        28.3574    2.2480   -3.6789 H         1 UNK         0.0739 
     89 H89        26.5698    0.0232   -3.5761 H         1 UNK         0.3093 
     90 H90        27.3489   -1.2603   -6.8379 H         1 UNK         0.0818 
     91 H91        28.3011   -2.1792   -4.0813 H         1 UNK         0.0819 
     92 H92        28.1457   -3.2143   -5.5090 H         1 UNK         0.0819 
     93 H93        29.3357   -1.9234   -5.4729 H         1 UNK         0.0819 
     94 H94        25.9011   -2.5189   -4.8180 H         1 UNK         0.3041 
     95 H95        23.0128   -0.6145   -4.4873 H         1 UNK         0.0784 
     96 H96        22.4004   -1.6159   -6.7021 H         1 UNK         0.0793 
     97 H97        23.0998   -3.1523   -6.2093 H         1 UNK         0.0793 
     98 H98        21.6828   -2.5119   -5.3745 H         1 UNK         0.0793 
     99 H99        23.4254   -3.2907   -3.7364 H         1 UNK         0.3024 
    100 H100       24.8275   -2.6406   -0.6053 H         1 UNK         0.1171 
    101 H101       23.5729   -4.7297   -0.5770 H         1 UNK         0.0786 
    102 H102       22.5786   -3.5229   -1.3682 H         1 UNK         0.0786 
    103 H103       23.4098   -4.7487   -2.3256 H         1 UNK         0.0786 
    104 H104       26.4425   -4.1648   -0.8594 H         1 UNK         0.2977 
    105 H105       25.1452    1.7397   -5.0508 H         1 UNK         0.3127 
    106 H106       24.7787    4.5995   -5.7071 H         1 UNK         0.0770 
    107 H107       23.0276    2.1487   -6.2888 H         1 UNK         0.0814 
    108 H108       22.6066    3.8220   -6.6202 H         1 UNK         0.0814 
    109 H109       22.8020    3.2850   -4.9597 H         1 UNK         0.0814 
    110 H110       25.4194    1.4458   -7.2763 H         1 UNK         0.2983 
    111 H111       25.4386    2.4005   -9.9579 H         1 UNK         0.0947 
    112 H112       26.4541    0.1910  -10.4645 H         1 UNK         0.0806 
    113 H113       25.1277    0.0022   -9.3277 H         1 UNK         0.0806 
    114 H114       26.7943   -0.0760   -8.7613 H         1 UNK         0.0806 
    115 H115       28.0571    2.0375   -7.5759 H         1 UNK         0.3000 
    116 H116       30.0659    2.8045   -7.3210 H         1 UNK         0.0850 
    117 H117       30.8724    4.8523   -8.4515 H         1 UNK         0.0810 
    118 H118       29.2063    5.0508   -7.9304 H         1 UNK         0.0810 
    119 H119       29.5733    4.7581   -9.6296 H         1 UNK         0.0810 
    120 H120       29.4481    2.2438  -10.7640 H         1 UNK         0.3040 
    121 H121       32.0350    1.7501  -11.6961 H         1 UNK         0.0766 
    122 H122       30.8669    0.5623  -13.5721 H         1 UNK         0.0812 
    123 H123       30.0633    2.0697  -13.1672 H         1 UNK         0.0812 
    124 H124       29.3782    0.5345  -12.6354 H         1 UNK         0.0812 
    125 H125       30.0777   -0.3567   -9.7437 H         1 UNK         0.3205 
    126 H126       31.3235   -2.8701  -10.1629 H         1 UNK         0.0754 
    127 H127       29.9748   -1.6424   -7.6988 H         1 UNK         0.0769 
    128 H128       30.3918   -3.3457   -7.8509 H         1 UNK         0.0769 
    129 H129       29.2010   -2.6382   -8.9299 H         1 UNK         0.0769 
    130 H130       32.4741   -0.0050   -8.4551 H         1 UNK         0.2981 
    131 H131       34.7678   -1.4584   -7.2684 H         1 UNK         0.0541 
    132 H132       34.1820   -0.3907  -10.4029 H         1 UNK         0.3459 
    133 H133       35.8168    0.1141  -10.7471 H         1 UNK         0.3459 
    134 H134       33.6089    1.3358   -6.8418 H         1 UNK         0.0612 
    135 H135       35.2422    0.9738   -6.3731 H         1 UNK         0.0612 
    136 H136       31.6395   -1.0000   -5.8494 H         1 UNK         0.0624 
    137 H137       31.5874    0.7209   -5.5354 H         1 UNK         0.0624 
@<TRIPOS>BOND
     1    1    2 1    
     2    1   72 1    
     3    1   73 1    
     4    1   74 1    
     5    2    3 2    
     6    2    4 am   BACKBONE|DICT|INTERRES
     7    4    5 1    
     8    4   75 1    
     9    5    6 1    
    10    5   35 1    
    11    5   76 1    
    12    6    7 1    
    13    6   77 1    
    14    6   78 1    
    15    7    8 1    
    16    8    9 1    
    17    8   79 1    
    18    8   80 1    
    19    9   10 ar   
    20    9   14 ar   
    21   10   11 ar   
    22   10   81 1    
    23   11   12 ar   
    24   11   71 1    
    25   12   13 ar   
    26   12   82 1    
    27   13   14 ar   
    28   13   15 1    
    29   14   83 1    
    30   15   16 1    
    31   15   84 1    
    32   15   85 1    
    33   16   17 1    
    34   17   18 1    
    35   17   86 1    
    36   17   87 1    
    37   18   19 1    
    38   18   37 1    
    39   18   88 1    
    40   19   20 am   BACKBONE|DICT|INTERRES
    41   19   89 1    
    42   20   21 2    
    43   20   22 1    
    44   22   23 1    
    45   22   24 1    
    46   22   90 1    
    47   23   91 1    
    48   23   92 1    
    49   23   93 1    
    50   24   25 am   BACKBONE|DICT|INTERRES
    51   24   94 1    
    52   25   26 2    
    53   25   27 1    
    54   27   28 1    
    55   27   29 1    
    56   27   95 1    
    57   28   96 1    
    58   28   97 1    
    59   28   98 1    
    60   29   30 am   BACKBONE|DICT|INTERRES
    61   29   99 1    
    62   30   31 2    
    63   30   32 1    
    64   32   33 1    
    65   32   34 1    
    66   32  100 1    
    67   33  101 1    
    68   33  102 1    
    69   33  103 1    
    70   34   35 am   BACKBONE|DICT|INTERRES
    71   34  104 1    
    72   35   36 2    
    73   37   38 2    
    74   37   39 am   BACKBONE|DICT|INTERRES
    75   39   40 1    
    76   39  105 1    
    77   40   41 1    
    78   40   42 1    
    79   40  106 1    
    80   41  107 1    
    81   41  108 1    
    82   41  109 1    
    83   42   43 2    
    84   42   44 am   BACKBONE|DICT|INTERRES
    85   44   45 1    
    86   44  110 1    
    87   45   46 1    
    88   45   47 1    
    89   45  111 1    
    90   46  112 1    
    91   46  113 1    
    92   46  114 1    
    93   47   48 2    
    94   47   49 am   BACKBONE|DICT|INTERRES
    95   49   50 1    
    96   49  115 1    
    97   50   51 1    
    98   50   52 1    
    99   50  116 1    
   100   51  117 1    
   101   51  118 1    
   102   51  119 1    
   103   52   53 2    
   104   52   54 am   BACKBONE|DICT|INTERRES
   105   54   55 1    
   106   54  120 1    
   107   55   56 1    
   108   55   57 1    
   109   55  121 1    
   110   56  122 1    
   111   56  123 1    
   112   56  124 1    
   113   57   58 2    
   114   57   59 am   BACKBONE|DICT|INTERRES
   115   59   60 1    
   116   59  125 1    
   117   60   61 1    
   118   60   62 1    
   119   60  126 1    
   120   61  127 1    
   121   61  128 1    
   122   61  129 1    
   123   62   63 2    
   124   62   64 am   BACKBONE|DICT|INTERRES
   125   64   65 1    
   126   64  130 1    
   127   65   66 1    
   128   65   69 1    
   129   65  131 1    
   130   66   67 am   BACKBONE|DICT|INTERRES
   131   66   68 2    
   132   67  132 1    
   133   67  133 1    
   134   69   70 1    
   135   69  134 1    
   136   69  135 1    
   137   70   71 1    
   138   71  136 1    
   139   71  137 1    
@<TRIPOS>SUBSTRUCTURE
     1 UNK         1 GROUP             0       ****    0 ROOT    
