@<TRIPOS>MOLECULE
3R137
137   139    1
SMALL
USER_CHARGES


@<TRIPOS>ATOM
      1 CA         25.1752   -6.1888   -1.2373 C.3       0 UNK        -0.2020 
      2 C          26.5569   -5.8096   -1.7652 C.2       0 UNK         0.4855 
      3 O          27.1528   -6.5890   -2.5047 O.2       0 UNK        -0.5197 
      4 N          27.1218   -4.6481   -1.4080 N.am      1 UNK        -0.4892 
      5 CA         26.5471   -3.5800   -0.5833 C.3       1 UNK         0.0835 
      6 C6         27.6401   -2.5848   -0.1060 C.3       12 UNK        -0.0855 
      7 S7         28.5992   -1.8151   -1.4582 S.3       12 UNK        -0.2931 
      8 C8         30.1361   -2.7973   -1.4326 C.3       12 UNK         0.0378 
      9 C9         30.7052   -2.9003   -2.8369 C.ar      12 UNK        -0.0802 
     10 C10        31.7906   -2.1127   -3.2330 C.ar      12 UNK        -0.0944 
     11 C11        32.2575   -2.1693   -4.5497 C.ar      12 UNK        -0.0787 
     12 C12        31.6049   -2.9911   -5.4735 C.ar      12 UNK        -0.0862 
     13 C13        30.5072   -3.7716   -5.0968 C.ar      12 UNK        -0.0733 
     14 C14        30.1045   -3.7618   -3.7585 C.ar      12 UNK        -0.0832 
     15 C15        29.7908   -4.5954   -6.1697 C.3       12 UNK         0.0240 
     16 S16        28.0665   -5.1198   -5.8189 S.3       12 UNK        -0.2522 
     17 C17        27.1637   -3.6339   -5.2431 C.3       12 UNK        -0.0967 
     18 CA         26.8388   -2.5798   -6.3299 C.3       5 UNK         0.0660 
     19 N          25.6410   -1.8107   -5.9743 N.am      5 UNK        -0.4015 
     20 C          25.0453   -0.9068   -6.7660 C.2       4 UNK         0.4946 
     21 O          25.4017   -0.6589   -7.9173 O.2       4 UNK        -0.5353 
     22 CA         23.8772   -0.1115   -6.1615 C.3       4 UNK         0.0277 
     23 CB         22.5614   -0.8921   -6.3063 C.3       4 UNK        -0.1981 
     24 N          24.0701    0.2597   -4.7573 N.am      4 UNK        -0.4209 
     25 C          25.0841    0.9762   -4.2560 C.2       3 UNK         0.4942 
     26 O          26.0239    1.3863   -4.9351 O.2       3 UNK        -0.5208 
     27 CA         25.0723    1.2813   -2.7455 C.3       3 UNK         0.0250 
     28 CB         24.3035    2.5847   -2.4568 C.3       3 UNK        -0.1990 
     29 N          24.6072    0.1796   -1.8872 N.am      3 UNK        -0.4232 
     30 C          23.3978   -0.3996   -1.8267 C.2       2 UNK         0.4993 
     31 O          22.4372   -0.0398   -2.5095 O.2       2 UNK        -0.5286 
     32 CA         23.2340   -1.5956   -0.8656 C.3       2 UNK         0.0209 
     33 CB         22.2273   -2.6359   -1.4048 C.3       2 UNK        -0.1931 
     34 N          24.4908   -2.2589   -0.4799 N.am      2 UNK        -0.4546 
     35 C          25.3735   -2.8646   -1.2898 C.2       1 UNK         0.5154 
     36 O          25.2913   -2.8669   -2.5219 O.2       1 UNK        -0.5181 
     37 C          28.0362   -1.6426   -6.5814 C.2       5 UNK         0.5014 
     38 O          28.6695   -1.7234   -7.6352 O.2       5 UNK        -0.5248 
     39 N          28.2916   -0.7412   -5.6222 N.am      6 UNK        -0.4434 
     40 CA         29.3715    0.2409   -5.6793 C.3       6 UNK         0.0363 
     41 CB         29.5170    0.9358   -4.3170 C.3       6 UNK        -0.1936 
     42 C          29.1908    1.2664   -6.8072 C.2       6 UNK         0.5081 
     43 O          30.1712    1.6235   -7.4605 O.2       6 UNK        -0.5248 
     44 N          27.9418    1.6916   -7.0404 N.am      7 UNK        -0.4718 
     45 CA         27.5496    2.5663   -8.1456 C.3       7 UNK         0.0273 
     46 CB         26.0907    3.0117   -7.9604 C.3       7 UNK        -0.1935 
     47 C          27.7523    1.9102   -9.5213 C.2       7 UNK         0.5018 
     48 O          28.2654    2.5690  -10.4257 O.2       7 UNK        -0.5186 
     49 N          27.3784    0.6276   -9.6499 N.am      8 UNK        -0.4240 
     50 CA         27.5840   -0.1776  -10.8577 C.3       8 UNK         0.0235 
     51 CB         26.8005   -1.4956  -10.7495 C.3       8 UNK        -0.2000 
     52 C          29.0698   -0.4491  -11.1442 C.2       8 UNK         0.4941 
     53 O          29.4869   -0.3571  -12.2995 O.2       8 UNK        -0.5273 
     54 N          29.8432   -0.7566  -10.0930 N.am      9 UNK        -0.4262 
     55 CA         31.2962   -0.9405  -10.1591 C.3       9 UNK         0.0264 
     56 CB         31.7755   -1.6090   -8.8628 C.3       9 UNK        -0.1955 
     57 C          32.0716    0.3677  -10.3993 C.2       9 UNK         0.5031 
     58 O          33.1820    0.3147  -10.9299 O.2       9 UNK        -0.5390 
     59 N          31.4826    1.5006   -9.9897 N.am      10 UNK        -0.4204 
     60 CA         32.0277    2.8616  -10.0049 C.3       10 UNK         0.0237 
     61 CB         32.2851    3.3471  -11.4475 C.3       10 UNK        -0.1985 
     62 C          33.2478    3.0232   -9.0765 C.2       10 UNK         0.4970 
     63 O          34.1575    3.7942   -9.3887 O.2       10 UNK        -0.4914 
     64 N          33.2426    2.2988   -7.9494 N.am      11 UNK        -0.4285 
     65 CA         34.2928    2.3440   -6.9188 C.3       11 UNK         0.1007 
     66 C          34.1479    3.5158   -5.9038 C.2       11 UNK         0.5703 
     67 N          33.0517    4.2661   -5.9046 N.am      11 UNK        -0.7361 
     68 O          35.0575    3.7610   -5.1147 O.2       11 UNK        -0.4986 
     69 C69        34.4760    0.9690   -6.2216 C.3       12 UNK        -0.0947 
     70 S70        32.9679    0.3586   -5.4026 S.3       12 UNK        -0.2240 
     71 C71        33.4575   -1.3390   -4.9826 C.3       12 UNK         0.0194 
     72 H72        24.4007   -5.5967   -1.7240 H         1 UNK         0.0906 
     73 H73        24.9664   -7.2382   -1.4446 H         1 UNK         0.0906 
     74 H74        25.1035   -6.0510   -0.1594 H         1 UNK         0.0906 
     75 H75        28.0178   -4.4153   -1.8048 H         1 UNK         0.3140 
     76 H76        26.1386   -4.0498    0.3134 H         1 UNK         0.1085 
     77 H77        27.1984   -1.7863    0.4932 H         1 UNK         0.0836 
     78 H78        28.3264   -3.0950    0.5718 H         1 UNK         0.0836 
     79 H79        30.8511   -2.3325   -0.7520 H         1 UNK         0.0731 
     80 H80        29.9479   -3.8001   -1.0468 H         1 UNK         0.0731 
     81 H81        32.2651   -1.4483   -2.5239 H         1 UNK         0.1312 
     82 H82        31.9509   -3.0177   -6.4959 H         1 UNK         0.1406 
     83 H83        29.2848   -4.3880   -3.4399 H         1 UNK         0.1631 
     84 H84        30.3811   -5.4937   -6.3537 H         1 UNK         0.0717 
     85 H85        29.7883   -4.0451   -7.1108 H         1 UNK         0.0717 
     86 H86        27.6401   -3.1785   -4.3761 H         1 UNK         0.0934 
     87 H87        26.2266   -4.0296   -4.8471 H         1 UNK         0.0934 
     88 H88        26.6175   -3.0978   -7.2655 H         1 UNK         0.0739 
     89 H89        25.2799   -1.9421   -5.0390 H         1 UNK         0.3093 
     90 H90        23.7864    0.8163   -6.7291 H         1 UNK         0.0818 
     91 H91        21.7091   -0.2959   -5.9797 H         1 UNK         0.0819 
     92 H92        22.3828   -1.1679   -7.3467 H         1 UNK         0.0819 
     93 H93        22.5701   -1.8121   -5.7202 H         1 UNK         0.0819 
     94 H94        23.3307    0.0076   -4.1041 H         1 UNK         0.3041 
     95 H95        26.1130    1.4487   -2.4622 H         1 UNK         0.0784 
     96 H96        24.7208    3.4156   -3.0274 H         1 UNK         0.0793 
     97 H97        23.2494    2.5066   -2.7249 H         1 UNK         0.0793 
     98 H98        24.3623    2.8543   -1.4024 H         1 UNK         0.0793 
     99 H99        25.3244   -0.2294   -1.3050 H         1 UNK         0.3024 
    100 H100       22.8137   -1.1767    0.0504 H         1 UNK         0.1171 
    101 H101       22.1013   -3.4650   -0.7086 H         1 UNK         0.0786 
    102 H102       22.5456   -3.0479   -2.3631 H         1 UNK         0.0786 
    103 H103       21.2423   -2.1915   -1.5542 H         1 UNK         0.0786 
    104 H104       24.6653   -2.2859    0.5162 H         1 UNK         0.2977 
    105 H105       27.6922   -0.7050   -4.8114 H         1 UNK         0.3127 
    106 H106       30.2869   -0.3125   -5.8860 H         1 UNK         0.0770 
    107 H107       28.6053    1.4582   -4.0265 H         1 UNK         0.0814 
    108 H108       30.3218    1.6717   -4.3408 H         1 UNK         0.0814 
    109 H109       29.7611    0.2181   -3.5338 H         1 UNK         0.0814 
    110 H110       27.2066    1.4006   -6.3994 H         1 UNK         0.2983 
    111 H111       28.1852    3.4537   -8.1056 H         1 UNK         0.0947 
    112 H112       25.7915    3.7047   -8.7479 H         1 UNK         0.0806 
    113 H113       25.9495    3.5213   -7.0071 H         1 UNK         0.0806 
    114 H114       25.4041    2.1657   -7.9916 H         1 UNK         0.0806 
    115 H115       26.9113    0.1695   -8.8714 H         1 UNK         0.3000 
    116 H116       27.1833    0.3850  -11.7036 H         1 UNK         0.0850 
    117 H117       26.9371   -2.1070  -11.6424 H         1 UNK         0.0810 
    118 H118       25.7314   -1.3118  -10.6425 H         1 UNK         0.0810 
    119 H119       27.1232   -2.0889   -9.8931 H         1 UNK         0.0810 
    120 H120       29.4022   -0.8970   -9.1855 H         1 UNK         0.3040 
    121 H121       31.5165   -1.6113  -10.9922 H         1 UNK         0.0766 
    122 H122       32.8540   -1.7719   -8.8777 H         1 UNK         0.0812 
    123 H123       31.5480   -0.9978   -7.9883 H         1 UNK         0.0812 
    124 H124       31.2997   -2.5802   -8.7279 H         1 UNK         0.0812 
    125 H125       30.6101    1.4056   -9.4807 H         1 UNK         0.3205 
    126 H126       31.2463    3.4954   -9.5828 H         1 UNK         0.0754 
    127 H127       32.5433    4.4066  -11.4633 H         1 UNK         0.0769 
    128 H128       31.3989    3.2212  -12.0698 H         1 UNK         0.0769 
    129 H129       33.1063    2.8060  -11.9184 H         1 UNK         0.0769 
    130 H130       32.4282    1.7376   -7.7320 H         1 UNK         0.2981 
    131 H131       35.2367    2.5415   -7.4302 H         1 UNK         0.0541 
    132 H132       32.2968    4.0641   -6.5398 H         1 UNK         0.3459 
    133 H133       32.9732    5.0266   -5.2485 H         1 UNK         0.3459 
    134 H134       35.2836    1.0084   -5.4885 H         1 UNK         0.0612 
    135 H135       34.7825    0.2307   -6.9642 H         1 UNK         0.0612 
    136 H136       33.9398   -1.8017   -5.8451 H         1 UNK         0.0624 
    137 H137       34.2031   -1.3128   -4.1867 H         1 UNK         0.0624 
@<TRIPOS>BOND
     1    1    2 1    
     2    1   72 1    
     3    1   73 1    
     4    1   74 1    
     5    2    3 2    
     6    2    4 am   BACKBONE|DICT|INTERRES
     7    4    5 1    
     8    4   75 1    
     9    5    6 1    
    10    5   35 1    
    11    5   76 1    
    12    6    7 1    
    13    6   77 1    
    14    6   78 1    
    15    7    8 1    
    16    8    9 1    
    17    8   79 1    
    18    8   80 1    
    19    9   10 ar   
    20    9   14 ar   
    21   10   11 ar   
    22   10   81 1    
    23   11   12 ar   
    24   11   71 1    
    25   12   13 ar   
    26   12   82 1    
    27   13   14 ar   
    28   13   15 1    
    29   14   83 1    
    30   15   16 1    
    31   15   84 1    
    32   15   85 1    
    33   16   17 1    
    34   17   18 1    
    35   17   86 1    
    36   17   87 1    
    37   18   19 1    
    38   18   37 1    
    39   18   88 1    
    40   19   20 am   BACKBONE|DICT|INTERRES
    41   19   89 1    
    42   20   21 2    
    43   20   22 1    
    44   22   23 1    
    45   22   24 1    
    46   22   90 1    
    47   23   91 1    
    48   23   92 1    
    49   23   93 1    
    50   24   25 am   BACKBONE|DICT|INTERRES
    51   24   94 1    
    52   25   26 2    
    53   25   27 1    
    54   27   28 1    
    55   27   29 1    
    56   27   95 1    
    57   28   96 1    
    58   28   97 1    
    59   28   98 1    
    60   29   30 am   BACKBONE|DICT|INTERRES
    61   29   99 1    
    62   30   31 2    
    63   30   32 1    
    64   32   33 1    
    65   32   34 1    
    66   32  100 1    
    67   33  101 1    
    68   33  102 1    
    69   33  103 1    
    70   34   35 am   BACKBONE|DICT|INTERRES
    71   34  104 1    
    72   35   36 2    
    73   37   38 2    
    74   37   39 am   BACKBONE|DICT|INTERRES
    75   39   40 1    
    76   39  105 1    
    77   40   41 1    
    78   40   42 1    
    79   40  106 1    
    80   41  107 1    
    81   41  108 1    
    82   41  109 1    
    83   42   43 2    
    84   42   44 am   BACKBONE|DICT|INTERRES
    85   44   45 1    
    86   44  110 1    
    87   45   46 1    
    88   45   47 1    
    89   45  111 1    
    90   46  112 1    
    91   46  113 1    
    92   46  114 1    
    93   47   48 2    
    94   47   49 am   BACKBONE|DICT|INTERRES
    95   49   50 1    
    96   49  115 1    
    97   50   51 1    
    98   50   52 1    
    99   50  116 1    
   100   51  117 1    
   101   51  118 1    
   102   51  119 1    
   103   52   53 2    
   104   52   54 am   BACKBONE|DICT|INTERRES
   105   54   55 1    
   106   54  120 1    
   107   55   56 1    
   108   55   57 1    
   109   55  121 1    
   110   56  122 1    
   111   56  123 1    
   112   56  124 1    
   113   57   58 2    
   114   57   59 am   BACKBONE|DICT|INTERRES
   115   59   60 1    
   116   59  125 1    
   117   60   61 1    
   118   60   62 1    
   119   60  126 1    
   120   61  127 1    
   121   61  128 1    
   122   61  129 1    
   123   62   63 2    
   124   62   64 am   BACKBONE|DICT|INTERRES
   125   64   65 1    
   126   64  130 1    
   127   65   66 1    
   128   65   69 1    
   129   65  131 1    
   130   66   67 am   BACKBONE|DICT|INTERRES
   131   66   68 2    
   132   67  132 1    
   133   67  133 1    
   134   69   70 1    
   135   69  134 1    
   136   69  135 1    
   137   70   71 1    
   138   71  136 1    
   139   71  137 1    
@<TRIPOS>SUBSTRUCTURE
     1 UNK         1 GROUP             0       ****    0 ROOT    
