@<TRIPOS>MOLECULE
3R137
137   139    1
SMALL
USER_CHARGES


@<TRIPOS>ATOM
      1 CA         28.2801   -5.2611   -8.1202 C.3       0 UNK        -0.2020 
      2 C          27.9465   -4.8627   -6.6910 C.2       0 UNK         0.4855 
      3 O          27.6904   -3.6887   -6.4279 O.2       0 UNK        -0.5197 
      4 N          27.9313   -5.8316   -5.7649 N.am      1 UNK        -0.4892 
      5 CA         27.6706   -5.6930   -4.3208 C.3       1 UNK         0.0835 
      6 C6         28.6544   -4.7140   -3.6201 C.3       12 UNK        -0.0855 
      7 S7         28.9946   -5.1904   -1.8921 S.3       12 UNK        -0.2931 
      8 C8         30.7132   -4.6048   -1.6761 C.3       12 UNK         0.0378 
      9 C9         30.8863   -3.0900   -1.7940 C.ar      12 UNK        -0.0802 
     10 C10        32.0661   -2.5726   -2.3412 C.ar      12 UNK        -0.0944 
     11 C11        32.2554   -1.1912   -2.4527 C.ar      12 UNK        -0.0787 
     12 C12        31.2562   -0.3210   -2.0098 C.ar      12 UNK        -0.0862 
     13 C13        30.0676   -0.8221   -1.4727 C.ar      12 UNK        -0.0733 
     14 C14        29.8971   -2.2035   -1.3501 C.ar      12 UNK        -0.0832 
     15 C15        28.9429    0.1235   -1.0715 C.3       12 UNK         0.0240 
     16 S16        28.2814    1.0577   -2.4925 S.3       12 UNK        -0.2522 
     17 C17        28.0952   -0.2559   -3.7529 C.3       12 UNK        -0.0967 
     18 CA         27.3634    0.1919   -5.0383 C.3       5 UNK         0.0660 
     19 N          25.9875    0.6324   -4.7786 N.am      5 UNK        -0.4015 
     20 C          25.0893    0.9706   -5.7143 C.2       4 UNK         0.4946 
     21 O          25.3539    1.0176   -6.9183 O.2       4 UNK        -0.5353 
     22 CA         23.6655    1.2989   -5.2269 C.3       4 UNK         0.0277 
     23 CB         22.6829    1.5128   -6.3941 C.3       4 UNK        -0.1981 
     24 N          23.1527    0.2340   -4.3624 N.am      4 UNK        -0.4209 
     25 C          23.3303    0.1578   -3.0360 C.2       3 UNK         0.4942 
     26 O          23.9003    1.0250   -2.3738 O.2       3 UNK        -0.5208 
     27 CA         22.8424   -1.1297   -2.3448 C.3       3 UNK         0.0250 
     28 CB         21.3630   -1.0046   -1.9463 C.3       3 UNK        -0.1990 
     29 N          23.0320   -2.3278   -3.1726 N.am      3 UNK        -0.4232 
     30 C          24.2295   -2.7944   -3.5554 C.2       2 UNK         0.4993 
     31 O          25.2981   -2.3032   -3.1865 O.2       2 UNK        -0.5286 
     32 CA         24.2191   -3.9632   -4.5547 C.3       2 UNK         0.0209 
     33 CB         23.6750   -3.5008   -5.9187 C.3       2 UNK        -0.1931 
     34 N          25.5689   -4.4861   -4.7579 N.am      2 UNK        -0.4546 
     35 C          26.1939   -5.3749   -3.9793 C.2       1 UNK         0.5154 
     36 O          25.6430   -5.9610   -3.0452 O.2       1 UNK        -0.5181 
     37 C          28.2013    1.2025   -5.8485 C.2       5 UNK         0.5014 
     38 O          29.0171    0.7842   -6.6691 O.2       5 UNK        -0.5248 
     39 N          27.9467    2.5050   -5.6582 N.am      6 UNK        -0.4434 
     40 CA         28.5677    3.6036   -6.4034 C.3       6 UNK         0.0363 
     41 CB         28.1322    4.9404   -5.7829 C.3       6 UNK        -0.1936 
     42 C          28.2664    3.5891   -7.9153 C.2       6 UNK         0.5081 
     43 O          29.0465    4.1546   -8.6811 O.2       6 UNK        -0.5248 
     44 N          27.1622    2.9470   -8.3185 N.am      7 UNK        -0.4718 
     45 CA         26.8041    2.7141   -9.7162 C.3       7 UNK         0.0273 
     46 CB         25.3079    3.0113   -9.9136 C.3       7 UNK        -0.1935 
     47 C          27.1263    1.2710  -10.1307 C.2       7 UNK         0.5018 
     48 O          27.6681    1.0642  -11.2168 O.2       7 UNK        -0.5186 
     49 N          26.7662    0.3019   -9.2768 N.am      8 UNK        -0.4240 
     50 CA         26.8532   -1.1304   -9.5655 C.3       8 UNK         0.0235 
     51 CB         25.9595   -1.8982   -8.5799 C.3       8 UNK        -0.2000 
     52 C          28.2863   -1.6910   -9.5721 C.2       8 UNK         0.4941 
     53 O          28.5922   -2.5175  -10.4330 O.2       8 UNK        -0.5273 
     54 N          29.1307   -1.2466   -8.6322 N.am      9 UNK        -0.4262 
     55 CA         30.5317   -1.6603   -8.5062 C.3       9 UNK         0.0264 
     56 CB         30.8080   -2.1485   -7.0729 C.3       9 UNK        -0.1955 
     57 C          31.4922   -0.5174   -8.8550 C.2       9 UNK         0.5031 
     58 O          32.5341   -0.7766   -9.4594 O.2       9 UNK        -0.5390 
     59 N          31.1568    0.7119   -8.4350 N.am      10 UNK        -0.4204 
     60 CA         31.9176    1.9671   -8.5383 C.3       10 UNK         0.0237 
     61 CB         32.2135    2.3441  -10.0027 C.3       10 UNK        -0.1985 
     62 C          33.1900    2.0080   -7.6709 C.2       10 UNK         0.4970 
     63 O          33.4397    3.0282   -7.0285 O.2       10 UNK        -0.4914 
     64 N          33.9438    0.9026   -7.6445 N.am      11 UNK        -0.4285 
     65 CA         35.1074    0.6381   -6.7798 C.3       11 UNK         0.1007 
     66 C          36.3693    1.4975   -7.0958 C.2       11 UNK         0.5703 
     67 N          36.4518    2.1517   -8.2485 N.am      11 UNK        -0.7361 
     68 O          37.3067    1.5475   -6.3024 O.2       11 UNK        -0.4986 
     69 C69        34.7486    0.6294   -5.2634 C.3       12 UNK        -0.0947 
     70 S70        33.3377   -0.4590   -4.8702 S.3       12 UNK        -0.2240 
     71 C71        33.5260   -0.6316   -3.0720 C.3       12 UNK         0.0194 
     72 H72        28.5253   -6.3195   -8.2041 H         1 UNK         0.0906 
     73 H73        27.4343   -5.0543   -8.7749 H         1 UNK         0.0906 
     74 H74        29.1329   -4.6860   -8.4796 H         1 UNK         0.0906 
     75 H75        28.1132   -6.7806   -6.0633 H         1 UNK         0.3140 
     76 H76        27.8571   -6.6926   -3.9238 H         1 UNK         0.1085 
     77 H77        28.2900   -3.6847   -3.6515 H         1 UNK         0.0836 
     78 H78        29.6064   -4.7030   -4.1533 H         1 UNK         0.0836 
     79 H79        31.3467   -5.1174   -2.4019 H         1 UNK         0.0731 
     80 H80        31.0628   -4.9141   -0.6904 H         1 UNK         0.0731 
     81 H81        32.8387   -3.2447   -2.6894 H         1 UNK         0.1312 
     82 H82        31.3867    0.7476   -2.1150 H         1 UNK         0.1406 
     83 H83        28.9792   -2.5884   -0.9278 H         1 UNK         0.1631 
     84 H84        29.3097    0.8259   -0.3220 H         1 UNK         0.0717 
     85 H85        28.1229   -0.4250   -0.6051 H         1 UNK         0.0717 
     86 H86        29.0825   -0.6442   -4.0124 H         1 UNK         0.0934 
     87 H87        27.5662   -1.0945   -3.2998 H         1 UNK         0.0934 
     88 H88        27.2758   -0.6955   -5.6683 H         1 UNK         0.0739 
     89 H89        25.6928    0.6219   -3.8102 H         1 UNK         0.3093 
     90 H90        23.7231    2.2330   -4.6640 H         1 UNK         0.0818 
     91 H91        23.0082    2.3349   -7.0332 H         1 UNK         0.0819 
     92 H92        21.6851    1.7618   -6.0328 H         1 UNK         0.0819 
     93 H93        22.6017    0.6250   -7.0227 H         1 UNK         0.0819 
     94 H94        22.7020   -0.5410   -4.8259 H         1 UNK         0.3041 
     95 H95        23.4320   -1.2567   -1.4341 H         1 UNK         0.0784 
     96 H96        21.2033   -0.1308   -1.3128 H         1 UNK         0.0793 
     97 H97        20.7148   -0.8982   -2.8171 H         1 UNK         0.0793 
     98 H98        21.0288   -1.8757   -1.3824 H         1 UNK         0.0793 
     99 H99        22.1961   -2.7891   -3.5032 H         1 UNK         0.3024 
    100 H100       23.5810   -4.7566   -4.1586 H         1 UNK         0.1171 
    101 H101       23.7282   -4.2997   -6.6587 H         1 UNK         0.0786 
    102 H102       22.6294   -3.1990   -5.8499 H         1 UNK         0.0786 
    103 H103       24.2361   -2.6498   -6.3066 H         1 UNK         0.0786 
    104 H104       26.1444   -4.0202   -5.4557 H         1 UNK         0.2977 
    105 H105       27.2678    2.7569   -4.9547 H         1 UNK         0.3127 
    106 H106       29.6494    3.5080   -6.2878 H         1 UNK         0.0770 
    107 H107       27.0529    5.0836   -5.8489 H         1 UNK         0.0814 
    108 H108       28.6039    5.7800   -6.2956 H         1 UNK         0.0814 
    109 H109       28.4180    5.0036   -4.7327 H         1 UNK         0.0814 
    110 H110       26.5852    2.4838   -7.6248 H         1 UNK         0.2983 
    111 H111       27.3682    3.3817  -10.3717 H         1 UNK         0.0947 
    112 H112       25.0099    2.8415  -10.9491 H         1 UNK         0.0806 
    113 H113       25.0779    4.0501   -9.6767 H         1 UNK         0.0806 
    114 H114       24.6794    2.3790   -9.2849 H         1 UNK         0.0806 
    115 H115       26.2920    0.5629   -8.4142 H         1 UNK         0.3000 
    116 H116       26.4456   -1.2879  -10.5667 H         1 UNK         0.0850 
    117 H117       25.9956   -2.9715   -8.7689 H         1 UNK         0.0810 
    118 H118       24.9180   -1.5878   -8.6651 H         1 UNK         0.0810 
    119 H119       26.2704   -1.7373   -7.5483 H         1 UNK         0.0810 
    120 H120       28.8093   -0.5488   -7.9674 H         1 UNK         0.3040 
    121 H121       30.7494   -2.4862   -9.1865 H         1 UNK         0.0766 
    122 H122       30.2225   -3.0329   -6.8330 H         1 UNK         0.0812 
    123 H123       30.5789   -1.3867   -6.3271 H         1 UNK         0.0812 
    124 H124       31.8575   -2.4186   -6.9475 H         1 UNK         0.0812 
    125 H125       30.3219    0.7788   -7.8520 H         1 UNK         0.3205 
    126 H126       31.2559    2.7341   -8.1362 H         1 UNK         0.0754 
    127 H127       31.2960    2.3846  -10.5902 H         1 UNK         0.0769 
    128 H128       32.8897    1.6364  -10.4827 H         1 UNK         0.0769 
    129 H129       32.6794    3.3285  -10.0621 H         1 UNK         0.0769 
    130 H130       33.6565    0.1385   -8.2499 H         1 UNK         0.2981 
    131 H131       35.4108   -0.3780   -7.0332 H         1 UNK         0.0541 
    132 H132       35.6950    2.1111   -8.9118 H         1 UNK         0.3459 
    133 H133       37.2756    2.6957   -8.4508 H         1 UNK         0.3459 
    134 H134       35.6050    0.2939   -4.6757 H         1 UNK         0.0612 
    135 H135       34.5137    1.6369   -4.9167 H         1 UNK         0.0612 
    136 H136       34.3755   -1.2812   -2.8560 H         1 UNK         0.0624 
    137 H137       33.7569    0.3410   -2.6345 H         1 UNK         0.0624 
@<TRIPOS>BOND
     1    1    2 1    
     2    1   72 1    
     3    1   73 1    
     4    1   74 1    
     5    2    3 2    
     6    2    4 am   BACKBONE|DICT|INTERRES
     7    4    5 1    
     8    4   75 1    
     9    5    6 1    
    10    5   35 1    
    11    5   76 1    
    12    6    7 1    
    13    6   77 1    
    14    6   78 1    
    15    7    8 1    
    16    8    9 1    
    17    8   79 1    
    18    8   80 1    
    19    9   10 ar   
    20    9   14 ar   
    21   10   11 ar   
    22   10   81 1    
    23   11   12 ar   
    24   11   71 1    
    25   12   13 ar   
    26   12   82 1    
    27   13   14 ar   
    28   13   15 1    
    29   14   83 1    
    30   15   16 1    
    31   15   84 1    
    32   15   85 1    
    33   16   17 1    
    34   17   18 1    
    35   17   86 1    
    36   17   87 1    
    37   18   19 1    
    38   18   37 1    
    39   18   88 1    
    40   19   20 am   BACKBONE|DICT|INTERRES
    41   19   89 1    
    42   20   21 2    
    43   20   22 1    
    44   22   23 1    
    45   22   24 1    
    46   22   90 1    
    47   23   91 1    
    48   23   92 1    
    49   23   93 1    
    50   24   25 am   BACKBONE|DICT|INTERRES
    51   24   94 1    
    52   25   26 2    
    53   25   27 1    
    54   27   28 1    
    55   27   29 1    
    56   27   95 1    
    57   28   96 1    
    58   28   97 1    
    59   28   98 1    
    60   29   30 am   BACKBONE|DICT|INTERRES
    61   29   99 1    
    62   30   31 2    
    63   30   32 1    
    64   32   33 1    
    65   32   34 1    
    66   32  100 1    
    67   33  101 1    
    68   33  102 1    
    69   33  103 1    
    70   34   35 am   BACKBONE|DICT|INTERRES
    71   34  104 1    
    72   35   36 2    
    73   37   38 2    
    74   37   39 am   BACKBONE|DICT|INTERRES
    75   39   40 1    
    76   39  105 1    
    77   40   41 1    
    78   40   42 1    
    79   40  106 1    
    80   41  107 1    
    81   41  108 1    
    82   41  109 1    
    83   42   43 2    
    84   42   44 am   BACKBONE|DICT|INTERRES
    85   44   45 1    
    86   44  110 1    
    87   45   46 1    
    88   45   47 1    
    89   45  111 1    
    90   46  112 1    
    91   46  113 1    
    92   46  114 1    
    93   47   48 2    
    94   47   49 am   BACKBONE|DICT|INTERRES
    95   49   50 1    
    96   49  115 1    
    97   50   51 1    
    98   50   52 1    
    99   50  116 1    
   100   51  117 1    
   101   51  118 1    
   102   51  119 1    
   103   52   53 2    
   104   52   54 am   BACKBONE|DICT|INTERRES
   105   54   55 1    
   106   54  120 1    
   107   55   56 1    
   108   55   57 1    
   109   55  121 1    
   110   56  122 1    
   111   56  123 1    
   112   56  124 1    
   113   57   58 2    
   114   57   59 am   BACKBONE|DICT|INTERRES
   115   59   60 1    
   116   59  125 1    
   117   60   61 1    
   118   60   62 1    
   119   60  126 1    
   120   61  127 1    
   121   61  128 1    
   122   61  129 1    
   123   62   63 2    
   124   62   64 am   BACKBONE|DICT|INTERRES
   125   64   65 1    
   126   64  130 1    
   127   65   66 1    
   128   65   69 1    
   129   65  131 1    
   130   66   67 am   BACKBONE|DICT|INTERRES
   131   66   68 2    
   132   67  132 1    
   133   67  133 1    
   134   69   70 1    
   135   69  134 1    
   136   69  135 1    
   137   70   71 1    
   138   71  136 1    
   139   71  137 1    
@<TRIPOS>SUBSTRUCTURE
     1 UNK         1 GROUP             0       ****    0 ROOT    
