@<TRIPOS>MOLECULE
3R137
137   139    1
SMALL
USER_CHARGES


@<TRIPOS>ATOM
      1 CA         26.2030   -7.0383    2.1081 C.3       0 UNK        -0.2020 
      2 C          26.2833   -5.5757    1.6968 C.2       0 UNK         0.4855 
      3 O          25.4269   -4.7818    2.0875 O.2       0 UNK        -0.5197 
      4 N          27.3089   -5.2104    0.9173 N.am      1 UNK        -0.4892 
      5 CA         27.5019   -3.8658    0.3681 C.3       1 UNK         0.0835 
      6 C6         28.9761   -3.6469   -0.0676 C.3       12 UNK        -0.0855 
      7 S7         29.5212   -1.9051    0.0205 S.3       12 UNK        -0.2931 
      8 C8         29.0554   -1.2084   -1.5990 C.3       12 UNK         0.0378 
      9 C9         29.8403   -1.7982   -2.7639 C.ar      12 UNK        -0.0802 
     10 C10        31.0250   -1.2008   -3.2043 C.ar      12 UNK        -0.0944 
     11 C11        31.7204   -1.7239   -4.3007 C.ar      12 UNK        -0.0787 
     12 C12        31.2340   -2.8715   -4.9407 C.ar      12 UNK        -0.0862 
     13 C13        30.0480   -3.4746   -4.5115 C.ar      12 UNK        -0.0733 
     14 C14        29.3543   -2.9218   -3.4340 C.ar      12 UNK        -0.0832 
     15 C15        29.5294   -4.7453   -5.1744 C.3       12 UNK         0.0240 
     16 S16        28.5895   -4.4335   -6.7044 S.3       12 UNK        -0.2522 
     17 C17        27.1190   -3.5241   -6.1040 C.3       12 UNK        -0.0967 
     18 CA         26.7912   -2.2583   -6.9345 C.3       5 UNK         0.0660 
     19 N          25.5689   -1.6000   -6.4683 N.am      5 UNK        -0.4015 
     20 C          24.8800   -0.6997   -7.1876 C.2       4 UNK         0.4946 
     21 O          25.1700   -0.3752   -8.3391 O.2       4 UNK        -0.5353 
     22 CA         23.6988   -0.0012   -6.4907 C.3       4 UNK         0.0277 
     23 CB         22.4291   -0.8624   -6.5812 C.3       4 UNK        -0.1981 
     24 N          23.9776    0.3218   -5.0896 N.am      4 UNK        -0.4209 
     25 C          24.9630    1.1344   -4.6818 C.2       3 UNK         0.4942 
     26 O          25.6712    1.7796   -5.4532 O.2       3 UNK        -0.5208 
     27 CA         25.2429    1.2171   -3.1704 C.3       3 UNK         0.0250 
     28 CB         24.6547    2.5126   -2.5892 C.3       3 UNK        -0.1990 
     29 N          24.7655    0.0723   -2.3845 N.am      3 UNK        -0.4232 
     30 C          25.1471   -1.2034   -2.5443 C.2       2 UNK         0.4993 
     31 O          25.9088   -1.5832   -3.4375 O.2       2 UNK        -0.5286 
     32 CA         24.5535   -2.2090   -1.5461 C.3       2 UNK         0.0209 
     33 CB         23.7794   -3.3393   -2.2574 C.3       2 UNK        -0.1931 
     34 N          25.5731   -2.7000   -0.6072 N.am      2 UNK        -0.4546 
     35 C          26.5070   -3.6455   -0.7919 C.2       1 UNK         0.5154 
     36 O          26.6024   -4.3536   -1.7960 O.2       1 UNK        -0.5181 
     37 C          27.9557   -1.2503   -7.0011 C.2       5 UNK         0.5014 
     38 O          28.6645   -1.2267   -8.0071 O.2       5 UNK        -0.5248 
     39 N          28.0898   -0.3994   -5.9711 N.am      6 UNK        -0.4434 
     40 CA         29.0958    0.6663   -5.8999 C.3       6 UNK         0.0363 
     41 CB         28.9805    1.4086   -4.5592 C.3       6 UNK        -0.1936 
     42 C          29.0007    1.6598   -7.0698 C.2       6 UNK         0.5081 
     43 O          30.0301    2.0511   -7.6223 O.2       6 UNK        -0.5248 
     44 N          27.7659    2.0279   -7.4357 N.am      7 UNK        -0.4718 
     45 CA         27.4505    2.8543   -8.5976 C.3       7 UNK         0.0273 
     46 CB         25.9838    3.3085   -8.5227 C.3       7 UNK        -0.1935 
     47 C          27.7370    2.1330   -9.9240 C.2       7 UNK         0.5018 
     48 O          28.4046    2.7089  -10.7829 O.2       7 UNK        -0.5186 
     49 N          27.2444    0.8924  -10.0669 N.am      8 UNK        -0.4240 
     50 CA         27.3869    0.0763  -11.2782 C.3       8 UNK         0.0235 
     51 CB         26.5293   -1.1935  -11.1587 C.3       8 UNK        -0.2000 
     52 C          28.8425   -0.2879  -11.6118 C.2       8 UNK         0.4941 
     53 O          29.2350   -0.1950  -12.7756 O.2       8 UNK        -0.5273 
     54 N          29.6182   -0.6802  -10.5929 N.am      9 UNK        -0.4262 
     55 CA         31.0400   -1.0113  -10.7169 C.3       9 UNK         0.0264 
     56 CB         31.4227   -1.9947   -9.5993 C.3       9 UNK        -0.1955 
     57 C          31.9593    0.2257  -10.7110 C.2       9 UNK         0.5031 
     58 O          33.1494    0.0747  -10.9921 O.2       9 UNK        -0.5390 
     59 N          31.4046    1.4104  -10.4065 N.am      10 UNK        -0.4204 
     60 CA         32.0676    2.7172  -10.3174 C.3       10 UNK         0.0237 
     61 CB         32.5429    3.1882  -11.7085 C.3       10 UNK        -0.1985 
     62 C          33.1807    2.7376   -9.2522 C.2       10 UNK         0.4970 
     63 O          34.3092    3.1447   -9.5370 O.2       10 UNK        -0.4914 
     64 N          32.8293    2.2855   -8.0456 N.am      11 UNK        -0.4285 
     65 CA         33.7138    2.1631   -6.8769 C.3       11 UNK         0.1007 
     66 C          33.1288    2.7987   -5.5839 C.2       11 UNK         0.5703 
     67 N          31.9340    3.3781   -5.6065 N.am      11 UNK        -0.7361 
     68 O          33.7868    2.7980   -4.5462 O.2       11 UNK        -0.4986 
     69 C69        34.1992    0.7009   -6.6752 C.3       12 UNK        -0.0947 
     70 S70        32.8309   -0.4949   -6.5150 S.3       12 UNK        -0.2240 
     71 C71        32.9939   -1.0454   -4.7895 C.3       12 UNK         0.0194 
     72 H72        27.0291   -7.6227    1.7032 H         1 UNK         0.0906 
     73 H73        26.2275   -7.1245    3.1941 H         1 UNK         0.0906 
     74 H74        25.2711   -7.4770    1.7524 H         1 UNK         0.0906 
     75 H75        27.9603   -5.9125    0.5953 H         1 UNK         0.3140 
     76 H76        27.2787   -3.1547    1.1672 H         1 UNK         0.1085 
     77 H77        29.1922   -4.0852   -1.0409 H         1 UNK         0.0836 
     78 H78        29.6334   -4.1802    0.6215 H         1 UNK         0.0836 
     79 H79        29.2171   -0.1306   -1.5574 H         1 UNK         0.0731 
     80 H80        27.9872   -1.3387   -1.7611 H         1 UNK         0.0731 
     81 H81        31.3964   -0.3186   -2.7009 H         1 UNK         0.1312 
     82 H82        31.7731   -3.2868   -5.7813 H         1 UNK         0.1406 
     83 H83        28.4301   -3.3744   -3.1104 H         1 UNK         0.1631 
     84 H84        28.9022   -5.3085   -4.4811 H         1 UNK         0.0717 
     85 H85        30.3723   -5.3959   -5.4120 H         1 UNK         0.0717 
     86 H86        26.2731   -4.2121   -6.1410 H         1 UNK         0.0934 
     87 H87        27.2334   -3.2659   -5.0531 H         1 UNK         0.0934 
     88 H88        26.6050   -2.5908   -7.9581 H         1 UNK         0.0739 
     89 H89        25.3190   -1.7525   -5.4981 H         1 UNK         0.3093 
     90 H90        23.5151    0.9379   -7.0174 H         1 UNK         0.0818 
     91 H91        21.5652   -0.3404   -6.1690 H         1 UNK         0.0819 
     92 H92        22.1949   -1.1015   -7.6196 H         1 UNK         0.0819 
     93 H93        22.5388   -1.8066   -6.0462 H         1 UNK         0.0819 
     94 H94        23.4303   -0.1556   -4.3890 H         1 UNK         0.3041 
     95 H95        26.3271    1.2547   -3.0512 H         1 UNK         0.0784 
     96 H96        25.0170    3.3853   -3.1350 H         1 UNK         0.0793 
     97 H97        23.5654    2.5227   -2.6453 H         1 UNK         0.0793 
     98 H98        24.9403    2.6466   -1.5456 H         1 UNK         0.0793 
     99 H99        24.1276    0.2936   -1.6329 H         1 UNK         0.3024 
    100 H100       23.8254   -1.6822   -0.9265 H         1 UNK         0.1171 
    101 H101       23.4096   -4.0776   -1.5458 H         1 UNK         0.0786 
    102 H102       22.9155   -2.9394   -2.7894 H         1 UNK         0.0786 
    103 H103       24.3917   -3.8595   -2.9946 H         1 UNK         0.0786 
    104 H104       25.5901   -2.2117    0.2781 H         1 UNK         0.2977 
    105 H105       27.4583   -0.4889   -5.1876 H         1 UNK         0.3127 
    106 H106       30.0717    0.1826   -5.9440 H         1 UNK         0.0770 
    107 H107       28.1285    2.0878   -4.5375 H         1 UNK         0.0814 
    108 H108       29.8722    2.0055   -4.3719 H         1 UNK         0.0814 
    109 H109       28.8745    0.7188   -3.7261 H         1 UNK         0.0814 
    110 H110       26.9828    1.7199   -6.8644 H         1 UNK         0.2983 
    111 H111       28.0845    3.7430   -8.5593 H         1 UNK         0.0947 
    112 H112       25.7251    3.9386   -9.3747 H         1 UNK         0.0806 
    113 H113       25.7966    3.8898   -7.6195 H         1 UNK         0.0806 
    114 H114       25.2964    2.4617   -8.5197 H         1 UNK         0.0806 
    115 H115       26.6868    0.4943   -9.3161 H         1 UNK         0.3000 
    116 H116       27.0002    0.6650  -12.1128 H         1 UNK         0.0850 
    117 H117       26.6146   -1.8104  -12.0542 H         1 UNK         0.0810 
    118 H118       25.4743   -0.9487  -11.0340 H         1 UNK         0.0810 
    119 H119       26.8334   -1.8056  -10.3090 H         1 UNK         0.0810 
    120 H120       29.2108   -0.7718   -9.6607 H         1 UNK         0.3040 
    121 H121       31.2000   -1.5182  -11.6709 H         1 UNK         0.0766 
    122 H122       31.2229   -1.5749   -8.6145 H         1 UNK         0.0812 
    123 H123       32.4824   -2.2499   -9.6388 H         1 UNK         0.0812 
    124 H124       30.8596   -2.9245   -9.6803 H         1 UNK         0.0812 
    125 H125       30.4191    1.4144  -10.1776 H         1 UNK         0.3205 
    126 H126       31.3054    3.4198   -9.9765 H         1 UNK         0.0754 
    127 H127       32.9385    4.2035  -11.6624 H         1 UNK         0.0769 
    128 H128       31.7214    3.1929  -12.4251 H         1 UNK         0.0769 
    129 H129       33.3320    2.5495  -12.1068 H         1 UNK         0.0769 
    130 H130       31.8638    1.9993   -7.8968 H         1 UNK         0.2981 
    131 H131       34.6064    2.7615   -7.0658 H         1 UNK         0.0541 
    132 H132       31.3642    3.3535   -6.4397 H         1 UNK         0.3459 
    133 H133       31.5851    3.8110   -4.7670 H         1 UNK         0.3459 
    134 H134       34.8690    0.6240   -5.8171 H         1 UNK         0.0612 
    135 H135       34.7945    0.3991   -7.5381 H         1 UNK         0.0612 
    136 H136       33.8329   -1.7374   -4.7081 H         1 UNK         0.0624 
    137 H137       33.2321   -0.1847   -4.1623 H         1 UNK         0.0624 
@<TRIPOS>BOND
     1    1    2 1    
     2    1   72 1    
     3    1   73 1    
     4    1   74 1    
     5    2    3 2    
     6    2    4 am   BACKBONE|DICT|INTERRES
     7    4    5 1    
     8    4   75 1    
     9    5    6 1    
    10    5   35 1    
    11    5   76 1    
    12    6    7 1    
    13    6   77 1    
    14    6   78 1    
    15    7    8 1    
    16    8    9 1    
    17    8   79 1    
    18    8   80 1    
    19    9   10 ar   
    20    9   14 ar   
    21   10   11 ar   
    22   10   81 1    
    23   11   12 ar   
    24   11   71 1    
    25   12   13 ar   
    26   12   82 1    
    27   13   14 ar   
    28   13   15 1    
    29   14   83 1    
    30   15   16 1    
    31   15   84 1    
    32   15   85 1    
    33   16   17 1    
    34   17   18 1    
    35   17   86 1    
    36   17   87 1    
    37   18   19 1    
    38   18   37 1    
    39   18   88 1    
    40   19   20 am   BACKBONE|DICT|INTERRES
    41   19   89 1    
    42   20   21 2    
    43   20   22 1    
    44   22   23 1    
    45   22   24 1    
    46   22   90 1    
    47   23   91 1    
    48   23   92 1    
    49   23   93 1    
    50   24   25 am   BACKBONE|DICT|INTERRES
    51   24   94 1    
    52   25   26 2    
    53   25   27 1    
    54   27   28 1    
    55   27   29 1    
    56   27   95 1    
    57   28   96 1    
    58   28   97 1    
    59   28   98 1    
    60   29   30 am   BACKBONE|DICT|INTERRES
    61   29   99 1    
    62   30   31 2    
    63   30   32 1    
    64   32   33 1    
    65   32   34 1    
    66   32  100 1    
    67   33  101 1    
    68   33  102 1    
    69   33  103 1    
    70   34   35 am   BACKBONE|DICT|INTERRES
    71   34  104 1    
    72   35   36 2    
    73   37   38 2    
    74   37   39 am   BACKBONE|DICT|INTERRES
    75   39   40 1    
    76   39  105 1    
    77   40   41 1    
    78   40   42 1    
    79   40  106 1    
    80   41  107 1    
    81   41  108 1    
    82   41  109 1    
    83   42   43 2    
    84   42   44 am   BACKBONE|DICT|INTERRES
    85   44   45 1    
    86   44  110 1    
    87   45   46 1    
    88   45   47 1    
    89   45  111 1    
    90   46  112 1    
    91   46  113 1    
    92   46  114 1    
    93   47   48 2    
    94   47   49 am   BACKBONE|DICT|INTERRES
    95   49   50 1    
    96   49  115 1    
    97   50   51 1    
    98   50   52 1    
    99   50  116 1    
   100   51  117 1    
   101   51  118 1    
   102   51  119 1    
   103   52   53 2    
   104   52   54 am   BACKBONE|DICT|INTERRES
   105   54   55 1    
   106   54  120 1    
   107   55   56 1    
   108   55   57 1    
   109   55  121 1    
   110   56  122 1    
   111   56  123 1    
   112   56  124 1    
   113   57   58 2    
   114   57   59 am   BACKBONE|DICT|INTERRES
   115   59   60 1    
   116   59  125 1    
   117   60   61 1    
   118   60   62 1    
   119   60  126 1    
   120   61  127 1    
   121   61  128 1    
   122   61  129 1    
   123   62   63 2    
   124   62   64 am   BACKBONE|DICT|INTERRES
   125   64   65 1    
   126   64  130 1    
   127   65   66 1    
   128   65   69 1    
   129   65  131 1    
   130   66   67 am   BACKBONE|DICT|INTERRES
   131   66   68 2    
   132   67  132 1    
   133   67  133 1    
   134   69   70 1    
   135   69  134 1    
   136   69  135 1    
   137   70   71 1    
   138   71  136 1    
   139   71  137 1    
@<TRIPOS>SUBSTRUCTURE
     1 UNK         1 GROUP             0       ****    0 ROOT    
