@<TRIPOS>MOLECULE
3R137
137   139    1
SMALL
USER_CHARGES


@<TRIPOS>ATOM
      1 CA         27.4676   -8.2801   -0.2764 C.3       0 UNK        -0.2020 
      2 C          27.1605   -6.8835   -0.7964 C.2       0 UNK         0.4855 
      3 O          26.4796   -6.1139   -0.1174 O.2       0 UNK        -0.5197 
      4 N          27.6633   -6.5475   -1.9910 N.am      1 UNK        -0.4892 
      5 CA         27.4058   -5.2759   -2.6755 C.3       1 UNK         0.0835 
      6 C6         28.5001   -4.9817   -3.7348 C.3       12 UNK        -0.0855 
      7 S7         28.7722   -3.1937   -3.9729 S.3       12 UNK        -0.2931 
      8 C8         30.1641   -2.9103   -2.8321 C.3       12 UNK         0.0378 
      9 C9         30.6225   -1.4596   -2.8596 C.ar      12 UNK        -0.0802 
     10 C10        31.8499   -1.1131   -3.4296 C.ar      12 UNK        -0.0944 
     11 C11        32.2708    0.2192   -3.4576 C.ar      12 UNK        -0.0787 
     12 C12        31.4506    1.2090   -2.9053 C.ar      12 UNK        -0.0862 
     13 C13        30.2156    0.8819   -2.3325 C.ar      12 UNK        -0.0733 
     14 C14        29.8200   -0.4626   -2.3007 C.ar      12 UNK        -0.0832 
     15 C15        29.3611    2.0000   -1.7301 C.3       12 UNK         0.0240 
     16 S16        27.5908    1.5976   -1.5091 S.3       12 UNK        -0.2522 
     17 C17        26.8484    2.0229   -3.1195 C.3       12 UNK        -0.0967 
     18 CA         26.8727    0.8507   -4.1548 C.3       5 UNK         0.0660 
     19 N          25.5753    0.6849   -4.8140 N.am      5 UNK        -0.4015 
     20 C          25.0176    1.5128   -5.7125 C.2       4 UNK         0.4946 
     21 O          25.5915    2.5005   -6.1751 O.2       4 UNK        -0.5353 
     22 CA         23.5744    1.2126   -6.1709 C.3       4 UNK         0.0277 
     23 CB         23.5425    0.7400   -7.6325 C.3       4 UNK        -0.1981 
     24 N          22.8861    0.2239   -5.3359 N.am      4 UNK        -0.4209 
     25 C          22.4017    0.4645   -4.1090 C.2       3 UNK         0.4942 
     26 O          22.4059    1.5756   -3.5783 O.2       3 UNK        -0.5208 
     27 CA         21.8414   -0.7401   -3.3272 C.3       3 UNK         0.0250 
     28 CB         20.3124   -0.8081   -3.4736 C.3       3 UNK        -0.1990 
     29 N          22.4216   -2.0402   -3.6953 N.am      3 UNK        -0.4232 
     30 C          23.7203   -2.3594   -3.6062 C.2       2 UNK         0.4993 
     31 O          24.6008   -1.5651   -3.2637 O.2       2 UNK        -0.5286 
     32 CA         24.1096   -3.7847   -4.0109 C.3       2 UNK         0.0209 
     33 CB         24.0929   -3.9448   -5.5427 C.3       2 UNK        -0.1931 
     34 N          25.4484   -4.0512   -3.4929 N.am      2 UNK        -0.4546 
     35 C          25.9868   -5.2556   -3.2870 C.2       1 UNK         0.5154 
     36 O          25.4182   -6.3139   -3.5729 O.2       1 UNK        -0.5181 
     37 C          28.0141    0.8943   -5.1972 C.2       5 UNK         0.5014 
     38 O          28.1778   -0.0649   -5.9568 O.2       5 UNK        -0.5248 
     39 N          28.7529    2.0102   -5.2599 N.am      6 UNK        -0.4434 
     40 CA         29.8748    2.2344   -6.1693 C.3       6 UNK         0.0363 
     41 CB         30.5131    3.5990   -5.8675 C.3       6 UNK        -0.1936 
     42 C          29.5190    2.1282   -7.6596 C.2       6 UNK         0.5081 
     43 O          30.3803    1.7431   -8.4490 O.2       6 UNK        -0.5248 
     44 N          28.2640    2.4309   -8.0209 N.am      7 UNK        -0.4718 
     45 CA         27.7582    2.2970   -9.3883 C.3       7 UNK         0.0273 
     46 CB         26.4805    3.1344   -9.5486 C.3       7 UNK        -0.1935 
     47 C          27.5270    0.8347   -9.8130 C.2       7 UNK         0.5018 
     48 O          27.5422    0.5620  -11.0137 O.2       7 UNK        -0.5186 
     49 N          27.3418   -0.0787   -8.8468 N.am      8 UNK        -0.4240 
     50 CA         27.3015   -1.5221   -9.0955 C.3       8 UNK         0.0235 
     51 CB         26.4509   -2.2326   -8.0299 C.3       8 UNK        -0.2000 
     52 C          28.7170   -2.1118   -9.1319 C.2       8 UNK         0.4941 
     53 O          29.0153   -2.9123  -10.0187 O.2       8 UNK        -0.5273 
     54 N          29.5600   -1.7071   -8.1712 N.am      9 UNK        -0.4262 
     55 CA         30.9412   -2.1774   -8.0379 C.3       9 UNK         0.0264 
     56 CB         31.4678   -1.7906   -6.6514 C.3       9 UNK        -0.1955 
     57 C          31.8943   -1.6640   -9.1315 C.2       9 UNK         0.5031 
     58 O          32.8756   -2.3458   -9.4303 O.2       9 UNK        -0.5390 
     59 N          31.6073   -0.4745   -9.6821 N.am      10 UNK        -0.4204 
     60 CA         32.4092    0.2790  -10.6550 C.3       10 UNK         0.0237 
     61 CB         32.5557   -0.4894  -11.9861 C.3       10 UNK        -0.1985 
     62 C          33.7559    0.7634  -10.0781 C.2       10 UNK         0.4970 
     63 O          34.7222    0.9243  -10.8258 O.2       10 UNK        -0.4914 
     64 N          33.7904    0.9999   -8.7605 N.am      11 UNK        -0.4285 
     65 CA         34.9474    1.5197   -8.0150 C.3       11 UNK         0.1007 
     66 C          35.1541    3.0588   -8.1325 C.2       11 UNK         0.5703 
     67 N          34.2245    3.8149   -8.7060 N.am      11 UNK        -0.7361 
     68 O          36.1874    3.5731   -7.7107 O.2       11 UNK        -0.4986 
     69 C69        34.9350    1.0358   -6.5388 C.3       12 UNK        -0.0947 
     70 S70        33.3940    1.4530   -5.6589 S.3       12 UNK        -0.2240 
     71 C71        33.6135    0.5815   -4.0794 C.3       12 UNK         0.0194 
     72 H72        28.0915   -8.8458   -0.9683 H         1 UNK         0.0906 
     73 H73        27.9899   -8.2190    0.6780 H         1 UNK         0.0906 
     74 H74        26.5422   -8.8349   -0.1237 H         1 UNK         0.0906 
     75 H75        28.1774   -7.2359   -2.5226 H         1 UNK         0.3140 
     76 H76        27.4443   -4.4946   -1.9122 H         1 UNK         0.1085 
     77 H77        29.4506   -5.4277   -3.4368 H         1 UNK         0.0836 
     78 H78        28.2595   -5.4371   -4.6979 H         1 UNK         0.0836 
     79 H79        30.9881   -3.5746   -3.0973 H         1 UNK         0.0731 
     80 H80        29.8634   -3.1776   -1.8180 H         1 UNK         0.0731 
     81 H81        32.4786   -1.8826   -3.8559 H         1 UNK         0.1312 
     82 H82        31.7782    2.2394   -2.9264 H         1 UNK         0.1406 
     83 H83        28.8815   -0.7507   -1.8494 H         1 UNK         0.1631 
     84 H84        29.4498    2.9073   -2.3293 H         1 UNK         0.0717 
     85 H85        29.7737    2.2413   -0.7498 H         1 UNK         0.0717 
     86 H86        25.8108    2.2619   -2.8781 H         1 UNK         0.0934 
     87 H87        27.2422    2.9683   -3.4914 H         1 UNK         0.0934 
     88 H88        27.0187   -0.0841   -3.6111 H         1 UNK         0.0739 
     89 H89        25.0410   -0.1106   -4.4781 H         1 UNK         0.3093 
     90 H90        23.0206    2.1521   -6.1110 H         1 UNK         0.0818 
     91 H91        23.9593    1.4942   -8.2983 H         1 UNK         0.0819 
     92 H92        24.1167   -0.1730   -7.7740 H         1 UNK         0.0819 
     93 H93        22.5223    0.5511   -7.9671 H         1 UNK         0.0819 
     94 H94        22.8230   -0.7163   -5.6977 H         1 UNK         0.3041 
     95 H95        22.0749   -0.5700   -2.2740 H         1 UNK         0.0784 
     96 H96        19.8493    0.1355   -3.1809 H         1 UNK         0.0793 
     97 H97        20.0135   -1.0120   -4.5026 H         1 UNK         0.0793 
     98 H98        19.8859   -1.5848   -2.8383 H         1 UNK         0.0793 
     99 H99        21.7692   -2.7484   -4.0019 H         1 UNK         0.3024 
    100 H100       23.4035   -4.4819   -3.5538 H         1 UNK         0.1171 
    101 H101       23.1003   -3.7546   -5.9523 H         1 UNK         0.0786 
    102 H102       24.7839   -3.2513   -6.0199 H         1 UNK         0.0786 
    103 H103       24.3744   -4.9543   -5.8427 H         1 UNK         0.0786 
    104 H104       25.9580   -3.2147   -3.2308 H         1 UNK         0.2977 
    105 H105       28.5309    2.7663   -4.6314 H         1 UNK         0.3127 
    106 H106       30.6020    1.4514   -5.9588 H         1 UNK         0.0770 
    107 H107       29.8097    4.4181   -6.0218 H         1 UNK         0.0814 
    108 H108       31.3709    3.7791   -6.5174 H         1 UNK         0.0814 
    109 H109       30.8745    3.6513   -4.8407 H         1 UNK         0.0814 
    110 H110       27.5969    2.7015   -7.3073 H         1 UNK         0.2983 
    111 H111       28.5090    2.7062  -10.0685 H         1 UNK         0.0947 
    112 H112       26.0672    3.0336  -10.5532 H         1 UNK         0.0806 
    113 H113       26.6810    4.1936   -9.3866 H         1 UNK         0.0806 
    114 H114       25.7082    2.8323   -8.8441 H         1 UNK         0.0806 
    115 H115       27.3978    0.2147   -7.8778 H         1 UNK         0.3000 
    116 H116       26.8388   -1.7113  -10.0669 H         1 UNK         0.0850 
    117 H117       26.5044   -3.3158   -8.1483 H         1 UNK         0.0810 
    118 H118       25.4015   -1.9604   -8.1174 H         1 UNK         0.0810 
    119 H119       26.7802   -2.0032   -7.0162 H         1 UNK         0.0810 
    120 H120       29.2089   -1.0904   -7.4447 H         1 UNK         0.3040 
    121 H121       30.9320   -3.2676   -8.1025 H         1 UNK         0.0766 
    122 H122       31.4333   -0.7134   -6.4923 H         1 UNK         0.0812 
    123 H123       32.5020   -2.1101   -6.5158 H         1 UNK         0.0812 
    124 H124       30.8763   -2.2620   -5.8681 H         1 UNK         0.0812 
    125 H125       30.8285    0.0501   -9.2921 H         1 UNK         0.3205 
    126 H126       31.8380    1.1842  -10.8662 H         1 UNK         0.0754 
    127 H127       33.0030    0.1422  -12.7546 H         1 UNK         0.0769 
    128 H128       31.5866   -0.8181  -12.3620 H         1 UNK         0.0769 
    129 H129       33.1912   -1.3690  -11.8808 H         1 UNK         0.0769 
    130 H130       32.9432    0.8823   -8.2238 H         1 UNK         0.2981 
    131 H131       35.8399    1.0849   -8.4688 H         1 UNK         0.0541 
    132 H132       33.3720    3.4035   -9.0492 H         1 UNK         0.3459 
    133 H133       34.3747    4.8083   -8.7822 H         1 UNK         0.3459 
    134 H134       35.7840    1.4386   -5.9835 H         1 UNK         0.0612 
    135 H135       35.0514   -0.0489   -6.5188 H         1 UNK         0.0612 
    136 H136       34.2107   -0.3176   -4.2383 H         1 UNK         0.0624 
    137 H137       34.1813    1.2139   -3.3957 H         1 UNK         0.0624 
@<TRIPOS>BOND
     1    1    2 1    
     2    1   72 1    
     3    1   73 1    
     4    1   74 1    
     5    2    3 2    
     6    2    4 am   BACKBONE|DICT|INTERRES
     7    4    5 1    
     8    4   75 1    
     9    5    6 1    
    10    5   35 1    
    11    5   76 1    
    12    6    7 1    
    13    6   77 1    
    14    6   78 1    
    15    7    8 1    
    16    8    9 1    
    17    8   79 1    
    18    8   80 1    
    19    9   10 ar   
    20    9   14 ar   
    21   10   11 ar   
    22   10   81 1    
    23   11   12 ar   
    24   11   71 1    
    25   12   13 ar   
    26   12   82 1    
    27   13   14 ar   
    28   13   15 1    
    29   14   83 1    
    30   15   16 1    
    31   15   84 1    
    32   15   85 1    
    33   16   17 1    
    34   17   18 1    
    35   17   86 1    
    36   17   87 1    
    37   18   19 1    
    38   18   37 1    
    39   18   88 1    
    40   19   20 am   BACKBONE|DICT|INTERRES
    41   19   89 1    
    42   20   21 2    
    43   20   22 1    
    44   22   23 1    
    45   22   24 1    
    46   22   90 1    
    47   23   91 1    
    48   23   92 1    
    49   23   93 1    
    50   24   25 am   BACKBONE|DICT|INTERRES
    51   24   94 1    
    52   25   26 2    
    53   25   27 1    
    54   27   28 1    
    55   27   29 1    
    56   27   95 1    
    57   28   96 1    
    58   28   97 1    
    59   28   98 1    
    60   29   30 am   BACKBONE|DICT|INTERRES
    61   29   99 1    
    62   30   31 2    
    63   30   32 1    
    64   32   33 1    
    65   32   34 1    
    66   32  100 1    
    67   33  101 1    
    68   33  102 1    
    69   33  103 1    
    70   34   35 am   BACKBONE|DICT|INTERRES
    71   34  104 1    
    72   35   36 2    
    73   37   38 2    
    74   37   39 am   BACKBONE|DICT|INTERRES
    75   39   40 1    
    76   39  105 1    
    77   40   41 1    
    78   40   42 1    
    79   40  106 1    
    80   41  107 1    
    81   41  108 1    
    82   41  109 1    
    83   42   43 2    
    84   42   44 am   BACKBONE|DICT|INTERRES
    85   44   45 1    
    86   44  110 1    
    87   45   46 1    
    88   45   47 1    
    89   45  111 1    
    90   46  112 1    
    91   46  113 1    
    92   46  114 1    
    93   47   48 2    
    94   47   49 am   BACKBONE|DICT|INTERRES
    95   49   50 1    
    96   49  115 1    
    97   50   51 1    
    98   50   52 1    
    99   50  116 1    
   100   51  117 1    
   101   51  118 1    
   102   51  119 1    
   103   52   53 2    
   104   52   54 am   BACKBONE|DICT|INTERRES
   105   54   55 1    
   106   54  120 1    
   107   55   56 1    
   108   55   57 1    
   109   55  121 1    
   110   56  122 1    
   111   56  123 1    
   112   56  124 1    
   113   57   58 2    
   114   57   59 am   BACKBONE|DICT|INTERRES
   115   59   60 1    
   116   59  125 1    
   117   60   61 1    
   118   60   62 1    
   119   60  126 1    
   120   61  127 1    
   121   61  128 1    
   122   61  129 1    
   123   62   63 2    
   124   62   64 am   BACKBONE|DICT|INTERRES
   125   64   65 1    
   126   64  130 1    
   127   65   66 1    
   128   65   69 1    
   129   65  131 1    
   130   66   67 am   BACKBONE|DICT|INTERRES
   131   66   68 2    
   132   67  132 1    
   133   67  133 1    
   134   69   70 1    
   135   69  134 1    
   136   69  135 1    
   137   70   71 1    
   138   71  136 1    
   139   71  137 1    
@<TRIPOS>SUBSTRUCTURE
     1 UNK         1 GROUP             0       ****    0 ROOT    
