@<TRIPOS>MOLECULE
3R137
137   139    1
SMALL
USER_CHARGES


@<TRIPOS>ATOM
      1 CA         25.6051   -9.0753   -0.4231 C.3       0 UNK        -0.2020 
      2 C          25.8759   -7.5917   -0.2221 C.2       0 UNK         0.4855 
      3 O          25.4186   -7.0162    0.7654 O.2       0 UNK        -0.5197 
      4 N          26.6222   -6.9728   -1.1470 N.am      1 UNK        -0.4892 
      5 CA         26.9521   -5.5430   -1.1486 C.3       1 UNK         0.0835 
      6 C6         28.1021   -5.2456   -2.1503 C.3       12 UNK        -0.0855 
      7 S7         28.4516   -3.4778   -2.4592 S.3       12 UNK        -0.2931 
      8 C8         29.9897   -3.2250   -1.5296 C.3       12 UNK         0.0378 
      9 C9         30.6408   -1.9059   -1.9163 C.ar      12 UNK        -0.0802 
     10 C10        31.7600   -1.8946   -2.7550 C.ar      12 UNK        -0.0944 
     11 C11        32.3831   -0.6912   -3.0986 C.ar      12 UNK        -0.0787 
     12 C12        31.8839    0.5058   -2.5745 C.ar      12 UNK        -0.0862 
     13 C13        30.7444    0.5138   -1.7635 C.ar      12 UNK        -0.0733 
     14 C14        30.1294   -0.6975   -1.4333 C.ar      12 UNK        -0.0832 
     15 C15        30.1940    1.8265   -1.2215 C.3       12 UNK         0.0240 
     16 S16        28.8633    2.5061   -2.2674 S.3       12 UNK        -0.2522 
     17 C17        29.7902    3.0601   -3.7467 C.3       12 UNK        -0.0967 
     18 CA         29.2537    2.4966   -5.0892 C.3       5 UNK         0.0660 
     19 N          28.8833    1.0818   -5.0016 N.am      5 UNK        -0.4015 
     20 C          28.7082    0.2566   -6.0412 C.2       4 UNK         0.4946 
     21 O          28.9591    0.5634   -7.2062 O.2       4 UNK        -0.5353 
     22 CA         28.1225   -1.1367   -5.7425 C.3       4 UNK         0.0277 
     23 CB         29.2473   -2.1730   -5.6121 C.3       4 UNK        -0.1981 
     24 N          27.2575   -1.1919   -4.5560 N.am      4 UNK        -0.4209 
     25 C          26.1434   -0.4634   -4.3967 C.2       3 UNK         0.4942 
     26 O          25.7448    0.3450   -5.2377 O.2       3 UNK        -0.5208 
     27 CA         25.3820   -0.6406   -3.0693 C.3       3 UNK         0.0250 
     28 CB         24.1824    0.3207   -2.9398 C.3       3 UNK        -0.1990 
     29 N          24.9519   -2.0202   -2.8166 N.am      3 UNK        -0.4232 
     30 C          24.2002   -2.8174   -3.5908 C.2       2 UNK         0.4993 
     31 O          23.7901   -2.5033   -4.7093 O.2       2 UNK        -0.5286 
     32 CA         23.8392   -4.2021   -3.0025 C.3       2 UNK         0.0209 
     33 CB         23.0642   -5.0876   -3.9973 C.3       2 UNK        -0.1931 
     34 N          25.0092   -4.9477   -2.5247 N.am      2 UNK        -0.4546 
     35 C          25.6938   -4.6870   -1.4023 C.2       1 UNK         0.5154 
     36 O          25.3806   -3.7991   -0.6064 O.2       1 UNK        -0.5181 
     37 C          28.1281    3.3889   -5.6554 C.2       5 UNK         0.5014 
     38 O          28.4438    4.4056   -6.2744 O.2       5 UNK        -0.5248 
     39 N          26.8536    3.0143   -5.4604 N.am      6 UNK        -0.4434 
     40 CA         25.7026    3.7204   -6.0340 C.3       6 UNK         0.0363 
     41 CB         24.4341    3.4321   -5.2154 C.3       6 UNK        -0.1936 
     42 C          25.5028    3.3457   -7.5101 C.2       6 UNK         0.5081 
     43 O          25.1458    4.2102   -8.3106 O.2       6 UNK        -0.5248 
     44 N          25.7817    2.0785   -7.8533 N.am      7 UNK        -0.4718 
     45 CA         25.8892    1.6018   -9.2370 C.3       7 UNK         0.0273 
     46 CB         25.9310    0.0658   -9.2437 C.3       7 UNK        -0.1935 
     47 C          27.1192    2.1788   -9.9650 C.2       7 UNK         0.5018 
     48 O          27.0893    2.3229  -11.1879 O.2       7 UNK        -0.5186 
     49 N          28.1729    2.4881   -9.1957 N.am      8 UNK        -0.4240 
     50 CA         29.4611    3.0909   -9.5513 C.3       8 UNK         0.0235 
     51 CB         29.2896    4.4673  -10.2218 C.3       8 UNK        -0.2000 
     52 C          30.3620    2.1623  -10.3741 C.2       8 UNK         0.4941 
     53 O          31.4950    1.9073   -9.9670 O.2       8 UNK        -0.5273 
     54 N          29.8399    1.6457  -11.4930 N.am      9 UNK        -0.4262 
     55 CA         30.5307    0.7329  -12.4082 C.3       9 UNK         0.0264 
     56 CB         29.6816    0.5564  -13.6773 C.3       9 UNK        -0.1955 
     57 C          30.8632   -0.6361  -11.7877 C.2       9 UNK         0.5031 
     58 O          31.8095   -1.2839  -12.2372 O.2       9 UNK        -0.5390 
     59 N          30.0862   -1.0514  -10.7777 N.am      10 UNK        -0.4204 
     60 CA         30.3012   -2.2832  -10.0199 C.3       10 UNK         0.0237 
     61 CB         29.0163   -2.6498   -9.2620 C.3       10 UNK        -0.1985 
     62 C          31.5057   -2.1822   -9.0683 C.2       10 UNK         0.4970 
     63 O          32.2962   -3.1244   -9.0051 O.2       10 UNK        -0.4914 
     64 N          31.6283   -1.0539   -8.3543 N.am      11 UNK        -0.4285 
     65 CA         32.7800   -0.7521   -7.4916 C.3       11 UNK         0.1007 
     66 C          34.0280   -0.3160   -8.3119 C.2       11 UNK         0.5703 
     67 N          33.8796    0.5223   -9.3302 N.am      11 UNK        -0.7361 
     68 O          35.1388   -0.7650   -8.0389 O.2       11 UNK        -0.4986 
     69 C69        32.3856    0.2509   -6.3737 C.3       12 UNK        -0.0947 
     70 S70        33.7159    0.6630   -5.1928 S.3       12 UNK        -0.2240 
     71 C71        33.6208   -0.7119   -3.9936 C.3       12 UNK         0.0194 
     72 H72        26.0748   -9.4583   -1.3289 H         1 UNK         0.0906 
     73 H73        25.9881   -9.6446    0.4235 H         1 UNK         0.0906 
     74 H74        24.5326   -9.2540   -0.4964 H         1 UNK         0.0906 
     75 H75        26.9753   -7.5084   -1.9278 H         1 UNK         0.3140 
     76 H76        27.3109   -5.2830   -0.1500 H         1 UNK         0.1085 
     77 H77        27.8716   -5.6880   -3.1211 H         1 UNK         0.0836 
     78 H78        29.0134   -5.7440   -1.8163 H         1 UNK         0.0836 
     79 H79        30.6750   -4.0524   -1.7202 H         1 UNK         0.0731 
     80 H80        29.7755   -3.2378   -0.4598 H         1 UNK         0.0731 
     81 H81        32.1507   -2.8280   -3.1370 H         1 UNK         0.1312 
     82 H82        32.3867    1.4346   -2.8022 H         1 UNK         0.1406 
     83 H83        29.2558   -0.7021   -0.7952 H         1 UNK         0.1631 
     84 H84        30.9912    2.5648   -1.1208 H         1 UNK         0.0717 
     85 H85        29.8013    1.6701   -0.2157 H         1 UNK         0.0717 
     86 H86        29.8086    4.1522   -3.7522 H         1 UNK         0.0934 
     87 H87        30.8359    2.7788   -3.6477 H         1 UNK         0.0934 
     88 H88        30.0709    2.5623   -5.8113 H         1 UNK         0.0739 
     89 H89        28.6889    0.7410   -4.0709 H         1 UNK         0.3093 
     90 H90        27.5020   -1.4126   -6.5965 H         1 UNK         0.0818 
     91 H91        28.8498   -3.1839   -5.5219 H         1 UNK         0.0819 
     92 H92        29.8703   -1.9758   -4.7418 H         1 UNK         0.0819 
     93 H93        29.9025   -2.1624   -6.4811 H         1 UNK         0.0819 
     94 H94        27.5246   -1.8463   -3.8300 H         1 UNK         0.3041 
     95 H95        26.0884   -0.3902   -2.2761 H         1 UNK         0.0784 
     96 H96        24.5081    1.3593   -3.0007 H         1 UNK         0.0793 
     97 H97        23.4480    0.1597   -3.7300 H         1 UNK         0.0793 
     98 H98        23.6767    0.1983   -1.9821 H         1 UNK         0.0793 
     99 H99        25.2361   -2.4117   -1.9219 H         1 UNK         0.3024 
    100 H100       23.1819   -4.0137   -2.1502 H         1 UNK         0.1171 
    101 H101       22.7714   -6.0341   -3.5423 H         1 UNK         0.0786 
    102 H102       22.1490   -4.5957   -4.3297 H         1 UNK         0.0786 
    103 H103       23.6567   -5.3099   -4.8857 H         1 UNK         0.0786 
    104 H104       25.3490   -5.6820   -3.1285 H         1 UNK         0.2977 
    105 H105       26.6545    2.1271   -5.0116 H         1 UNK         0.3127 
    106 H106       25.8916    4.7951   -5.9839 H         1 UNK         0.0770 
    107 H107       24.1297    2.3879   -5.2852 H         1 UNK         0.0814 
    108 H108       23.5989    4.0336   -5.5764 H         1 UNK         0.0814 
    109 H109       24.5761    3.6747   -4.1624 H         1 UNK         0.0814 
    110 H110       25.9933    1.4174   -7.1141 H         1 UNK         0.2983 
    111 H111       25.0004    1.9271   -9.7822 H         1 UNK         0.0947 
    112 H112       25.9782   -0.3196  -10.2632 H         1 UNK         0.0806 
    113 H113       25.0408   -0.3574   -8.7780 H         1 UNK         0.0806 
    114 H114       26.8006   -0.3157   -8.7099 H         1 UNK         0.0806 
    115 H115       28.1183    2.1828   -8.2311 H         1 UNK         0.3000 
    116 H116       29.9723    3.2560   -8.6011 H         1 UNK         0.0850 
    117 H117       30.2585    4.9373  -10.3952 H         1 UNK         0.0810 
    118 H118       28.7107    5.1413   -9.5899 H         1 UNK         0.0810 
    119 H119       28.7863    4.3980  -11.1864 H         1 UNK         0.0810 
    120 H120       28.8780    1.8938  -11.7127 H         1 UNK         0.3040 
    121 H121       31.4771    1.1996  -12.6895 H         1 UNK         0.0766 
    122 H122       30.1783   -0.1016  -14.3919 H         1 UNK         0.0812 
    123 H123       29.5151    1.5099  -14.1790 H         1 UNK         0.0812 
    124 H124       28.7072    0.1201  -13.4536 H         1 UNK         0.0812 
    125 H125       29.3313   -0.4511  -10.4816 H         1 UNK         0.3205 
    126 H126       30.5106   -3.0876  -10.7288 H         1 UNK         0.0754 
    127 H127       28.6992   -1.8453   -8.6011 H         1 UNK         0.0769 
    128 H128       29.1598   -3.5426   -8.6516 H         1 UNK         0.0769 
    129 H129       28.1968   -2.8570   -9.9506 H         1 UNK         0.0769 
    130 H130       30.9440   -0.3183   -8.4626 H         1 UNK         0.2981 
    131 H131       33.0551   -1.6790   -6.9844 H         1 UNK         0.0541 
    132 H132       32.9743    0.9359   -9.5452 H         1 UNK         0.3459 
    133 H133       34.6887    0.7909   -9.8657 H         1 UNK         0.3459 
    134 H134       31.5466   -0.1463   -5.8036 H         1 UNK         0.0612 
    135 H135       32.0331    1.1834   -6.8179 H         1 UNK         0.0612 
    136 H136       34.5034   -0.6702   -3.3545 H         1 UNK         0.0624 
    137 H137       33.6824   -1.6530   -4.5420 H         1 UNK         0.0624 
@<TRIPOS>BOND
     1    1    2 1    
     2    1   72 1    
     3    1   73 1    
     4    1   74 1    
     5    2    3 2    
     6    2    4 am   BACKBONE|DICT|INTERRES
     7    4    5 1    
     8    4   75 1    
     9    5    6 1    
    10    5   35 1    
    11    5   76 1    
    12    6    7 1    
    13    6   77 1    
    14    6   78 1    
    15    7    8 1    
    16    8    9 1    
    17    8   79 1    
    18    8   80 1    
    19    9   10 ar   
    20    9   14 ar   
    21   10   11 ar   
    22   10   81 1    
    23   11   12 ar   
    24   11   71 1    
    25   12   13 ar   
    26   12   82 1    
    27   13   14 ar   
    28   13   15 1    
    29   14   83 1    
    30   15   16 1    
    31   15   84 1    
    32   15   85 1    
    33   16   17 1    
    34   17   18 1    
    35   17   86 1    
    36   17   87 1    
    37   18   19 1    
    38   18   37 1    
    39   18   88 1    
    40   19   20 am   BACKBONE|DICT|INTERRES
    41   19   89 1    
    42   20   21 2    
    43   20   22 1    
    44   22   23 1    
    45   22   24 1    
    46   22   90 1    
    47   23   91 1    
    48   23   92 1    
    49   23   93 1    
    50   24   25 am   BACKBONE|DICT|INTERRES
    51   24   94 1    
    52   25   26 2    
    53   25   27 1    
    54   27   28 1    
    55   27   29 1    
    56   27   95 1    
    57   28   96 1    
    58   28   97 1    
    59   28   98 1    
    60   29   30 am   BACKBONE|DICT|INTERRES
    61   29   99 1    
    62   30   31 2    
    63   30   32 1    
    64   32   33 1    
    65   32   34 1    
    66   32  100 1    
    67   33  101 1    
    68   33  102 1    
    69   33  103 1    
    70   34   35 am   BACKBONE|DICT|INTERRES
    71   34  104 1    
    72   35   36 2    
    73   37   38 2    
    74   37   39 am   BACKBONE|DICT|INTERRES
    75   39   40 1    
    76   39  105 1    
    77   40   41 1    
    78   40   42 1    
    79   40  106 1    
    80   41  107 1    
    81   41  108 1    
    82   41  109 1    
    83   42   43 2    
    84   42   44 am   BACKBONE|DICT|INTERRES
    85   44   45 1    
    86   44  110 1    
    87   45   46 1    
    88   45   47 1    
    89   45  111 1    
    90   46  112 1    
    91   46  113 1    
    92   46  114 1    
    93   47   48 2    
    94   47   49 am   BACKBONE|DICT|INTERRES
    95   49   50 1    
    96   49  115 1    
    97   50   51 1    
    98   50   52 1    
    99   50  116 1    
   100   51  117 1    
   101   51  118 1    
   102   51  119 1    
   103   52   53 2    
   104   52   54 am   BACKBONE|DICT|INTERRES
   105   54   55 1    
   106   54  120 1    
   107   55   56 1    
   108   55   57 1    
   109   55  121 1    
   110   56  122 1    
   111   56  123 1    
   112   56  124 1    
   113   57   58 2    
   114   57   59 am   BACKBONE|DICT|INTERRES
   115   59   60 1    
   116   59  125 1    
   117   60   61 1    
   118   60   62 1    
   119   60  126 1    
   120   61  127 1    
   121   61  128 1    
   122   61  129 1    
   123   62   63 2    
   124   62   64 am   BACKBONE|DICT|INTERRES
   125   64   65 1    
   126   64  130 1    
   127   65   66 1    
   128   65   69 1    
   129   65  131 1    
   130   66   67 am   BACKBONE|DICT|INTERRES
   131   66   68 2    
   132   67  132 1    
   133   67  133 1    
   134   69   70 1    
   135   69  134 1    
   136   69  135 1    
   137   70   71 1    
   138   71  136 1    
   139   71  137 1    
@<TRIPOS>SUBSTRUCTURE
     1 UNK         1 GROUP             0       ****    0 ROOT    
