@<TRIPOS>MOLECULE
3R137
137   139    1
SMALL
USER_CHARGES


@<TRIPOS>ATOM
      1 CA         27.4874   -0.6016    4.3014 C.3       0 UNK        -0.2020 
      2 C          27.5291   -0.5326    2.7819 C.2       0 UNK         0.4855 
      3 O          26.9121    0.3557    2.1926 O.2       0 UNK        -0.5197 
      4 N          28.2580   -1.4571    2.1437 N.am      1 UNK        -0.4892 
      5 CA         28.3514   -1.5830    0.6854 C.3       1 UNK         0.0835 
      6 C6         29.6259   -2.3653    0.2777 C.3       12 UNK        -0.0855 
      7 S7         30.1282   -2.0468   -1.4499 S.3       12 UNK        -0.2931 
      8 C8         29.9876   -3.7246   -2.1526 C.3       12 UNK         0.0378 
      9 C9         30.1819   -3.7776   -3.6660 C.ar      12 UNK        -0.0802 
     10 C10        31.1977   -3.0494   -4.2955 C.ar      12 UNK        -0.0944 
     11 C11        31.3924   -3.1290   -5.6822 C.ar      12 UNK        -0.0787 
     12 C12        30.5615   -3.9703   -6.4308 C.ar      12 UNK        -0.0862 
     13 C13        29.5569   -4.7230   -5.8150 C.ar      12 UNK        -0.0733 
     14 C14        29.3687   -4.6146   -4.4348 C.ar      12 UNK        -0.0832 
     15 C15        28.7108   -5.6992   -6.6247 C.3       12 UNK         0.0240 
     16 S16        27.6810   -4.8896   -7.8888 S.3       12 UNK        -0.2522 
     17 C17        26.5347   -3.8952   -6.8747 C.3       12 UNK        -0.0967 
     18 CA         26.2133   -2.5324   -7.5344 C.3       5 UNK         0.0660 
     19 N          25.0693   -1.8830   -6.8978 N.am      5 UNK        -0.4015 
     20 C          24.1286   -1.1856   -7.5482 C.2       4 UNK         0.4946 
     21 O          24.0638   -1.0978   -8.7743 O.2       4 UNK        -0.5353 
     22 CA         23.0750   -0.4513   -6.6973 C.3       4 UNK         0.0277 
     23 CB         21.8030   -1.3049   -6.5666 C.3       4 UNK        -0.1981 
     24 N          23.5392   -0.0696   -5.3602 N.am      4 UNK        -0.4209 
     25 C          24.5393    0.7876   -5.1120 C.2       3 UNK         0.4942 
     26 O          25.1962    1.3528   -5.9857 O.2       3 UNK        -0.5208 
     27 CA         24.9069    1.0086   -3.6354 C.3       3 UNK         0.0250 
     28 CB         23.9577    2.0355   -2.9969 C.3       3 UNK        -0.1990 
     29 N          24.9505   -0.2034   -2.8026 N.am      3 UNK        -0.4232 
     30 C          25.5464   -1.3661   -3.1075 C.2       2 UNK         0.4993 
     31 O          26.0526   -1.6213   -4.2015 O.2       2 UNK        -0.5286 
     32 CA         25.6774   -2.3771   -1.9682 C.3       2 UNK         0.0209 
     33 CB         25.8610   -3.8215   -2.4749 C.3       2 UNK        -0.1931 
     34 N          26.8426   -1.9602   -1.1985 N.am      2 UNK        -0.4546 
     35 C          27.0633   -2.2032    0.0957 C.2       1 UNK         0.5154 
     36 O          26.3136   -2.8843    0.8014 O.2       1 UNK        -0.5181 
     37 C          27.4211   -1.5794   -7.5159 C.2       5 UNK         0.5014 
     38 O          28.0465   -1.3747   -8.5555 O.2       5 UNK        -0.5248 
     39 N          27.7132   -0.9920   -6.3476 N.am      6 UNK        -0.4434 
     40 CA         28.8718   -0.1344   -6.0984 C.3       6 UNK         0.0363 
     41 CB         28.8869    0.2771   -4.6185 C.3       6 UNK        -0.1936 
     42 C          28.9595    1.0994   -7.0104 C.2       6 UNK         0.5081 
     43 O          30.0582    1.4290   -7.4634 O.2       6 UNK        -0.5248 
     44 N          27.8147    1.7458   -7.2721 N.am      7 UNK        -0.4718 
     45 CA         27.7144    2.9009   -8.1680 C.3       7 UNK         0.0273 
     46 CB         26.4789    3.7332   -7.7895 C.3       7 UNK        -0.1935 
     47 C          27.6584    2.5093   -9.6548 C.2       7 UNK         0.5018 
     48 O          28.0059    3.3358  -10.4989 O.2       7 UNK        -0.5186 
     49 N          27.2154    1.2798   -9.9571 N.am      8 UNK        -0.4240 
     50 CA         27.1919    0.7244  -11.3141 C.3       8 UNK         0.0235 
     51 CB         26.1788   -0.4288  -11.3911 C.3       8 UNK        -0.2000 
     52 C          28.5878    0.2608  -11.7602 C.2       8 UNK         0.4941 
     53 O          28.9341    0.4248  -12.9312 O.2       8 UNK        -0.5273 
     54 N          29.3563   -0.2950  -10.8148 N.am      9 UNK        -0.4262 
     55 CA         30.7736   -0.6210  -10.9367 C.3       9 UNK         0.0264 
     56 CB         31.0774   -1.8243  -10.0215 C.3       9 UNK        -0.1955 
     57 C          31.6251    0.6343  -10.6515 C.2       9 UNK         0.5031 
     58 O          31.4559    1.6440  -11.3383 O.2       9 UNK        -0.5390 
     59 N          32.5401    0.5642   -9.6760 N.am      10 UNK        -0.4204 
     60 CA         33.4528    1.6538   -9.3231 C.3       10 UNK         0.0237 
     61 CB         34.6653    1.6570  -10.2798 C.3       10 UNK        -0.1985 
     62 C          33.8564    1.5978   -7.8408 C.2       10 UNK         0.4970 
     63 O          35.0233    1.8387   -7.5251 O.2       10 UNK        -0.4914 
     64 N          32.8976    1.2873   -6.9589 N.am      11 UNK        -0.4285 
     65 CA         33.0856    1.3128   -5.4958 C.3       11 UNK         0.1007 
     66 C          32.3631    2.5094   -4.8155 C.2       11 UNK         0.5703 
     67 N          31.4345    3.1935   -5.4743 N.am      11 UNK        -0.7361 
     68 O          32.6673    2.8373   -3.6713 O.2       11 UNK        -0.4986 
     69 C69        32.6872   -0.0265   -4.8253 C.3       12 UNK        -0.0947 
     70 S70        33.6876   -1.4410   -5.3960 S.3       12 UNK        -0.2240 
     71 C71        32.4773   -2.3413   -6.4250 C.3       12 UNK         0.0194 
     72 H72        26.4618   -0.7414    4.6420 H         1 UNK         0.0906 
     73 H73        28.0884   -1.4236    4.6898 H         1 UNK         0.0906 
     74 H74        27.8654    0.3263    4.7299 H         1 UNK         0.0906 
     75 H75        28.7114   -2.1850    2.6778 H         1 UNK         0.3140 
     76 H76        28.4372   -0.5694    0.2854 H         1 UNK         0.1085 
     77 H77        29.5066   -3.4355    0.4589 H         1 UNK         0.0836 
     78 H78        30.4651   -2.0541    0.9022 H         1 UNK         0.0836 
     79 H79        30.7304   -4.3703   -1.6825 H         1 UNK         0.0731 
     80 H80        29.0093   -4.1281   -1.8864 H         1 UNK         0.0731 
     81 H81        31.8344   -2.4246   -3.6879 H         1 UNK         0.1312 
     82 H82        30.7036   -4.0528   -7.5000 H         1 UNK         0.1406 
     83 H83        28.6026   -5.2068   -3.9534 H         1 UNK         0.1631 
     84 H84        28.0654   -6.2915   -5.9741 H         1 UNK         0.0717 
     85 H85        29.3744   -6.4091   -7.1203 H         1 UNK         0.0717 
     86 H86        25.6184   -4.4762   -6.7596 H         1 UNK         0.0934 
     87 H87        26.9289   -3.7588   -5.8660 H         1 UNK         0.0934 
     88 H88        25.9693   -2.7258   -8.5815 H         1 UNK         0.0739 
     89 H89        25.0887   -1.8496   -5.8834 H         1 UNK         0.3093 
     90 H90        22.8174    0.4674   -7.2287 H         1 UNK         0.0818 
     91 H91        21.0102   -0.7615   -6.0521 H         1 UNK         0.0819 
     92 H92        21.4170   -1.5823   -7.5487 H         1 UNK         0.0819 
     93 H93        21.9904   -2.2287   -6.0178 H         1 UNK         0.0819 
     94 H94        23.0698   -0.4951   -4.5740 H         1 UNK         0.3041 
     95 H95        25.9091    1.4376   -3.6184 H         1 UNK         0.0784 
     96 H96        23.9163    2.9512   -3.5890 H         1 UNK         0.0793 
     97 H97        22.9396    1.6522   -2.9176 H         1 UNK         0.0793 
     98 H98        24.2896    2.3161   -1.9970 H         1 UNK         0.0793 
     99 H99        24.5867   -0.0979   -1.8660 H         1 UNK         0.3024 
    100 H100       24.7793   -2.3291   -1.3479 H         1 UNK         0.1171 
    101 H101       25.0111   -4.1312   -3.0842 H         1 UNK         0.0786 
    102 H102       25.9424   -4.5261   -1.6473 H         1 UNK         0.0786 
    103 H103       26.7558   -3.9221   -3.0886 H         1 UNK         0.0786 
    104 H104       27.5257   -1.4181   -1.7121 H         1 UNK         0.2977 
    105 H105       27.1352   -1.2130   -5.5373 H         1 UNK         0.3127 
    106 H106       29.7564   -0.7409   -6.2959 H         1 UNK         0.0770 
    107 H107       29.7140    0.9516   -4.3980 H         1 UNK         0.0814 
    108 H108       27.9710    0.7945   -4.3395 H         1 UNK         0.0814 
    109 H109       28.9934   -0.5930   -3.9704 H         1 UNK         0.0814 
    110 H110       26.9520    1.4345   -6.8310 H         1 UNK         0.2983 
    111 H111       28.5984    3.5277   -8.0289 H         1 UNK         0.0947 
    112 H112       26.4214    4.6416   -8.3907 H         1 UNK         0.0806 
    113 H113       26.5096    4.0373   -6.7431 H         1 UNK         0.0806 
    114 H114       25.5540    3.1778   -7.9499 H         1 UNK         0.0806 
    115 H115       26.9881    0.6502   -9.2000 H         1 UNK         0.3000 
    116 H116       26.8647    1.5052  -12.0045 H         1 UNK         0.0850 
    117 H117       26.1335   -0.8401  -12.4002 H         1 UNK         0.0810 
    118 H118       25.1748   -0.0908  -11.1341 H         1 UNK         0.0810 
    119 H119       26.4380   -1.2463  -10.7181 H         1 UNK         0.0810 
    120 H120       28.9379   -0.4647   -9.9024 H         1 UNK         0.3040 
    121 H121       30.9858   -0.9210  -11.9649 H         1 UNK         0.0766 
    122 H122       30.5018   -2.6974  -10.3305 H         1 UNK         0.0812 
    123 H123       30.8081   -1.6172   -8.9865 H         1 UNK         0.0812 
    124 H124       32.1290   -2.1114  -10.0590 H         1 UNK         0.0812 
    125 H125       32.6305   -0.2889   -9.1431 H         1 UNK         0.3205 
    126 H126       32.9273    2.6040   -9.4415 H         1 UNK         0.0754 
    127 H127       35.3363    2.4898  -10.0649 H         1 UNK         0.0769 
    128 H128       34.3537    1.7612  -11.3191 H         1 UNK         0.0769 
    129 H129       35.2446    0.7370  -10.1945 H         1 UNK         0.0769 
    130 H130       31.9392    1.1794   -7.2813 H         1 UNK         0.2981 
    131 H131       34.1418    1.4657   -5.2676 H         1 UNK         0.0541 
    132 H132       31.1237    2.8926   -6.3878 H         1 UNK         0.3459 
    133 H133       30.9905    3.9768   -5.0228 H         1 UNK         0.3459 
    134 H134       31.6336   -0.2376   -4.9938 H         1 UNK         0.0612 
    135 H135       32.8120    0.0355   -3.7426 H         1 UNK         0.0612 
    136 H136       31.9991   -1.6208   -7.0860 H         1 UNK         0.0624 
    137 H137       33.0333   -3.0290   -7.0637 H         1 UNK         0.0624 
@<TRIPOS>BOND
     1    1    2 1    
     2    1   72 1    
     3    1   73 1    
     4    1   74 1    
     5    2    3 2    
     6    2    4 am   BACKBONE|DICT|INTERRES
     7    4    5 1    
     8    4   75 1    
     9    5    6 1    
    10    5   35 1    
    11    5   76 1    
    12    6    7 1    
    13    6   77 1    
    14    6   78 1    
    15    7    8 1    
    16    8    9 1    
    17    8   79 1    
    18    8   80 1    
    19    9   10 ar   
    20    9   14 ar   
    21   10   11 ar   
    22   10   81 1    
    23   11   12 ar   
    24   11   71 1    
    25   12   13 ar   
    26   12   82 1    
    27   13   14 ar   
    28   13   15 1    
    29   14   83 1    
    30   15   16 1    
    31   15   84 1    
    32   15   85 1    
    33   16   17 1    
    34   17   18 1    
    35   17   86 1    
    36   17   87 1    
    37   18   19 1    
    38   18   37 1    
    39   18   88 1    
    40   19   20 am   BACKBONE|DICT|INTERRES
    41   19   89 1    
    42   20   21 2    
    43   20   22 1    
    44   22   23 1    
    45   22   24 1    
    46   22   90 1    
    47   23   91 1    
    48   23   92 1    
    49   23   93 1    
    50   24   25 am   BACKBONE|DICT|INTERRES
    51   24   94 1    
    52   25   26 2    
    53   25   27 1    
    54   27   28 1    
    55   27   29 1    
    56   27   95 1    
    57   28   96 1    
    58   28   97 1    
    59   28   98 1    
    60   29   30 am   BACKBONE|DICT|INTERRES
    61   29   99 1    
    62   30   31 2    
    63   30   32 1    
    64   32   33 1    
    65   32   34 1    
    66   32  100 1    
    67   33  101 1    
    68   33  102 1    
    69   33  103 1    
    70   34   35 am   BACKBONE|DICT|INTERRES
    71   34  104 1    
    72   35   36 2    
    73   37   38 2    
    74   37   39 am   BACKBONE|DICT|INTERRES
    75   39   40 1    
    76   39  105 1    
    77   40   41 1    
    78   40   42 1    
    79   40  106 1    
    80   41  107 1    
    81   41  108 1    
    82   41  109 1    
    83   42   43 2    
    84   42   44 am   BACKBONE|DICT|INTERRES
    85   44   45 1    
    86   44  110 1    
    87   45   46 1    
    88   45   47 1    
    89   45  111 1    
    90   46  112 1    
    91   46  113 1    
    92   46  114 1    
    93   47   48 2    
    94   47   49 am   BACKBONE|DICT|INTERRES
    95   49   50 1    
    96   49  115 1    
    97   50   51 1    
    98   50   52 1    
    99   50  116 1    
   100   51  117 1    
   101   51  118 1    
   102   51  119 1    
   103   52   53 2    
   104   52   54 am   BACKBONE|DICT|INTERRES
   105   54   55 1    
   106   54  120 1    
   107   55   56 1    
   108   55   57 1    
   109   55  121 1    
   110   56  122 1    
   111   56  123 1    
   112   56  124 1    
   113   57   58 2    
   114   57   59 am   BACKBONE|DICT|INTERRES
   115   59   60 1    
   116   59  125 1    
   117   60   61 1    
   118   60   62 1    
   119   60  126 1    
   120   61  127 1    
   121   61  128 1    
   122   61  129 1    
   123   62   63 2    
   124   62   64 am   BACKBONE|DICT|INTERRES
   125   64   65 1    
   126   64  130 1    
   127   65   66 1    
   128   65   69 1    
   129   65  131 1    
   130   66   67 am   BACKBONE|DICT|INTERRES
   131   66   68 2    
   132   67  132 1    
   133   67  133 1    
   134   69   70 1    
   135   69  134 1    
   136   69  135 1    
   137   70   71 1    
   138   71  136 1    
   139   71  137 1    
@<TRIPOS>SUBSTRUCTURE
     1 UNK         1 GROUP             0       ****    0 ROOT    
