@<TRIPOS>MOLECULE
3R137
137   139    1
SMALL
USER_CHARGES


@<TRIPOS>ATOM
      1 CA         25.2898   -8.2312    0.4536 C.3       0 UNK        -0.2020 
      2 C          25.5193   -6.9284    1.2046 C.2       0 UNK         0.4855 
      3 O          25.0041   -6.7592    2.3100 O.2       0 UNK        -0.5197 
      4 N          26.2899   -6.0059    0.6142 N.am      1 UNK        -0.4892 
      5 CA         26.5967   -4.6815    1.1714 C.3       1 UNK         0.0835 
      6 C6         27.8370   -4.0458    0.4910 C.3       12 UNK        -0.0855 
      7 S7         27.7341   -3.9612   -1.3324 S.3       12 UNK        -0.2931 
      8 C8         29.4099   -3.3433   -1.7165 C.3       12 UNK         0.0378 
      9 C9         29.7222   -3.1994   -3.2076 C.ar      12 UNK        -0.0802 
     10 C10        30.7225   -2.3039   -3.6041 C.ar      12 UNK        -0.0944 
     11 C11        31.0723   -2.1677   -4.9515 C.ar      12 UNK        -0.0787 
     12 C12        30.4096   -2.9353   -5.9112 C.ar      12 UNK        -0.0862 
     13 C13        29.3951   -3.8211   -5.5367 C.ar      12 UNK        -0.0733 
     14 C14        29.0648   -3.9568   -4.1862 C.ar      12 UNK        -0.0832 
     15 C15        28.6590   -4.6435   -6.5850 C.3       12 UNK         0.0240 
     16 S16        27.0706   -3.8802   -7.0522 S.3       12 UNK        -0.2522 
     17 C17        27.6375   -2.3881   -7.9376 C.3       12 UNK        -0.0967 
     18 CA         27.2589   -1.0500   -7.2428 C.3       5 UNK         0.0660 
     19 N          27.5514   -1.0464   -5.7993 N.am      5 UNK        -0.4015 
     20 C          26.9270   -0.2825   -4.8935 C.2       4 UNK         0.4946 
     21 O          26.0155    0.5009   -5.1784 O.2       4 UNK        -0.5353 
     22 CA         27.4477   -0.3275   -3.4556 C.3       4 UNK         0.0277 
     23 CB         28.6775    0.5871   -3.2959 C.3       4 UNK        -0.1981 
     24 N          26.3705    0.1086   -2.5750 N.am      4 UNK        -0.4209 
     25 C          26.3159   -0.0650   -1.2516 C.2       3 UNK         0.4942 
     26 O          27.2313   -0.5453   -0.5823 O.2       3 UNK        -0.5208 
     27 CA         25.0202    0.3531   -0.5329 C.3       3 UNK         0.0250 
     28 CB         24.0960    1.2882   -1.3488 C.3       3 UNK        -0.1990 
     29 N          24.3093   -0.8366   -0.0542 N.am      3 UNK        -0.4232 
     30 C          23.7663   -1.8124   -0.7973 C.2       2 UNK         0.4993 
     31 O          23.6767   -1.7849   -2.0263 O.2       2 UNK        -0.5286 
     32 CA         23.3007   -3.0611   -0.0281 C.3       2 UNK         0.0209 
     33 CB         22.2260   -3.8571   -0.7918 C.3       2 UNK        -0.1931 
     34 N          24.4450   -3.9354    0.2283 N.am      2 UNK        -0.4546 
     35 C          25.3885   -3.7197    1.1560 C.2       1 UNK         0.5154 
     36 O          25.3306   -2.8037    1.9794 O.2       1 UNK        -0.5181 
     37 C          27.9340    0.1600   -7.9328 C.2       5 UNK         0.5014 
     38 O          28.6272   -0.0104   -8.9381 O.2       5 UNK        -0.5248 
     39 N          27.7613    1.3525   -7.3472 N.am      6 UNK        -0.4434 
     40 CA         28.5664    2.5572   -7.5557 C.3       6 UNK         0.0363 
     41 CB         28.0091    3.6920   -6.6819 C.3       6 UNK        -0.1936 
     42 C          28.7098    3.0174   -9.0122 C.2       6 UNK         0.5081 
     43 O          29.8064    3.4109   -9.4085 O.2       6 UNK        -0.5248 
     44 N          27.6130    2.9523   -9.7758 N.am      7 UNK        -0.4718 
     45 CA         27.5708    3.3532  -11.1840 C.3       7 UNK         0.0273 
     46 CB         26.1352    3.7745  -11.5390 C.3       7 UNK        -0.1935 
     47 C          28.0555    2.2552  -12.1466 C.2       7 UNK         0.5018 
     48 O          28.4521    2.5800  -13.2662 O.2       7 UNK        -0.5186 
     49 N          27.9941    0.9869  -11.7186 N.am      8 UNK        -0.4240 
     50 CA         28.3328   -0.1781  -12.5387 C.3       8 UNK         0.0235 
     51 CB         27.4033   -1.3483  -12.1771 C.3       8 UNK        -0.2000 
     52 C          29.8024   -0.5796  -12.3665 C.2       8 UNK         0.4941 
     53 O          30.4929   -0.7990  -13.3620 O.2       8 UNK        -0.5273 
     54 N          30.2552   -0.6588  -11.1088 N.am      9 UNK        -0.4262 
     55 CA         31.6257   -1.0158  -10.7361 C.3       9 UNK         0.0264 
     56 CB         31.5940   -1.7071   -9.3637 C.3       9 UNK        -0.1955 
     57 C          32.5758    0.1941  -10.7110 C.2       9 UNK         0.5031 
     58 O          33.7816   -0.0019  -10.5556 O.2       9 UNK        -0.5390 
     59 N          32.0226    1.4114  -10.8328 N.am      10 UNK        -0.4204 
     60 CA         32.6941    2.7167  -10.7650 C.3       10 UNK         0.0237 
     61 CB         33.7491    2.8677  -11.8826 C.3       10 UNK        -0.1985 
     62 C          33.2545    3.0578   -9.3679 C.2       10 UNK         0.4970 
     63 O          34.0732    3.9720   -9.2560 O.2       10 UNK        -0.4914 
     64 N          32.7999    2.3431   -8.3289 N.am      11 UNK        -0.4285 
     65 CA         33.1674    2.5699   -6.9242 C.3       11 UNK         0.1007 
     66 C          32.3898    3.7233   -6.2246 C.2       11 UNK         0.5703 
     67 N          31.4500    4.3916   -6.8835 N.am      11 UNK        -0.7361 
     68 O          32.6657    4.0386   -5.0695 O.2       11 UNK        -0.4986 
     69 C69        33.1828    1.2493   -6.1081 C.3       12 UNK        -0.0947 
     70 S70        31.5921    0.3576   -6.0133 S.3       12 UNK        -0.2240 
     71 C71        32.2001   -1.2320   -5.3649 C.3       12 UNK         0.0194 
     72 H72        24.2258   -8.3739    0.2665 H         1 UNK         0.0906 
     73 H73        25.8077   -8.2467   -0.5053 H         1 UNK         0.0906 
     74 H74        25.6476   -9.0733    1.0454 H         1 UNK         0.0906 
     75 H75        26.6938   -6.1907   -0.2943 H         1 UNK         0.3140 
     76 H76        26.8464   -4.8239    2.2256 H         1 UNK         0.1085 
     77 H77        28.0201   -3.0417    0.8804 H         1 UNK         0.0836 
     78 H78        28.7221   -4.6281    0.7525 H         1 UNK         0.0836 
     79 H79        29.5319   -2.3767   -1.2242 H         1 UNK         0.0731 
     80 H80        30.1463   -4.0164   -1.2756 H         1 UNK         0.0731 
     81 H81        31.2436   -1.7198   -2.8575 H         1 UNK         0.1312 
     82 H82        30.6916   -2.8453   -6.9496 H         1 UNK         0.1406 
     83 H83        28.2933   -4.6607   -3.9064 H         1 UNK         0.1631 
     84 H84        28.4663   -5.6445   -6.1958 H         1 UNK         0.0717 
     85 H85        29.2764   -4.7795   -7.4744 H         1 UNK         0.0717 
     86 H86        28.7130   -2.4558   -8.1008 H         1 UNK         0.0934 
     87 H87        27.1948   -2.4184   -8.9338 H         1 UNK         0.0934 
     88 H88        26.1819   -0.9200   -7.3686 H         1 UNK         0.0739 
     89 H89        28.3080   -1.6486   -5.5023 H         1 UNK         0.3093 
     90 H90        27.7036   -1.3578   -3.2080 H         1 UNK         0.0818 
     91 H91        29.1001    0.5188   -2.2937 H         1 UNK         0.0819 
     92 H92        29.4664    0.3087   -3.9932 H         1 UNK         0.0819 
     93 H93        28.4298    1.6320   -3.4862 H         1 UNK         0.0819 
     94 H94        25.5670    0.4824   -3.0662 H         1 UNK         0.3041 
     95 H95        25.3322    0.9025    0.3567 H         1 UNK         0.0784 
     96 H96        24.6253    2.1932   -1.6499 H         1 UNK         0.0793 
     97 H97        23.7087    0.8184   -2.2531 H         1 UNK         0.0793 
     98 H98        23.2395    1.6037   -0.7529 H         1 UNK         0.0793 
     99 H99        24.4241   -1.0317    0.9336 H         1 UNK         0.3024 
    100 H100       22.8694   -2.7398    0.9232 H         1 UNK         0.1171 
    101 H101       21.3621   -3.2292   -1.0141 H         1 UNK         0.0786 
    102 H102       21.8687   -4.7033   -0.2045 H         1 UNK         0.0786 
    103 H103       22.6013   -4.2431   -1.7405 H         1 UNK         0.0786 
    104 H104       24.5934   -4.6936   -0.4215 H         1 UNK         0.2977 
    105 H105       27.1260    1.3702   -6.5545 H         1 UNK         0.3127 
    106 H106       29.5701    2.3201   -7.2000 H         1 UNK         0.0770 
    107 H107       26.9663    3.9075   -6.9175 H         1 UNK         0.0814 
    108 H108       28.5713    4.6152   -6.8267 H         1 UNK         0.0814 
    109 H109       28.0695    3.4415   -5.6226 H         1 UNK         0.0814 
    110 H110       26.7559    2.6142   -9.3618 H         1 UNK         0.2983 
    111 H111       28.2219    4.2193  -11.3255 H         1 UNK         0.0947 
    112 H112       26.0714    4.1091  -12.5755 H         1 UNK         0.0806 
    113 H113       25.7981    4.6010  -10.9131 H         1 UNK         0.0806 
    114 H114       25.4297    2.9513  -11.4187 H         1 UNK         0.0806 
    115 H115       27.7383    0.8132  -10.7549 H         1 UNK         0.3000 
    116 H116       28.1725    0.0575  -13.5934 H         1 UNK         0.0850 
    117 H117       27.6291   -2.2271  -12.7827 H         1 UNK         0.0810 
    118 H118       26.3585   -1.0928  -12.3549 H         1 UNK         0.0810 
    119 H119       27.5035   -1.6384  -11.1317 H         1 UNK         0.0810 
    120 H120       29.6172   -0.4535  -10.3391 H         1 UNK         0.3040 
    121 H121       32.0248   -1.7256  -11.4638 H         1 UNK         0.0766 
    122 H122       32.5964   -1.9882   -9.0377 H         1 UNK         0.0812 
    123 H123       30.9974   -2.6185   -9.3982 H         1 UNK         0.0812 
    124 H124       31.1712   -1.0565   -8.5985 H         1 UNK         0.0812 
    125 H125       31.0175    1.4518  -10.9303 H         1 UNK         0.3205 
    126 H126       31.9192    3.4586  -10.9603 H         1 UNK         0.0754 
    127 H127       34.1139    3.8939  -11.9399 H         1 UNK         0.0769 
    128 H128       33.3313    2.6200  -12.8585 H         1 UNK         0.0769 
    129 H129       34.6152    2.2271  -11.7149 H         1 UNK         0.0769 
    130 H130       32.1071    1.6295   -8.4944 H         1 UNK         0.2981 
    131 H131       34.2023    2.9171   -6.9239 H         1 UNK         0.0541 
    132 H132       31.2057    4.1428   -7.8322 H         1 UNK         0.3459 
    133 H133       30.9783    5.1516   -6.4213 H         1 UNK         0.3459 
    134 H134       33.5319    1.4353   -5.0908 H         1 UNK         0.0612 
    135 H135       33.9186    0.5752   -6.5497 H         1 UNK         0.0612 
    136 H136       32.8165   -1.7141   -6.1254 H         1 UNK         0.0624 
    137 H137       32.8566   -1.0425   -4.5141 H         1 UNK         0.0624 
@<TRIPOS>BOND
     1    1    2 1    
     2    1   72 1    
     3    1   73 1    
     4    1   74 1    
     5    2    3 2    
     6    2    4 am   BACKBONE|DICT|INTERRES
     7    4    5 1    
     8    4   75 1    
     9    5    6 1    
    10    5   35 1    
    11    5   76 1    
    12    6    7 1    
    13    6   77 1    
    14    6   78 1    
    15    7    8 1    
    16    8    9 1    
    17    8   79 1    
    18    8   80 1    
    19    9   10 ar   
    20    9   14 ar   
    21   10   11 ar   
    22   10   81 1    
    23   11   12 ar   
    24   11   71 1    
    25   12   13 ar   
    26   12   82 1    
    27   13   14 ar   
    28   13   15 1    
    29   14   83 1    
    30   15   16 1    
    31   15   84 1    
    32   15   85 1    
    33   16   17 1    
    34   17   18 1    
    35   17   86 1    
    36   17   87 1    
    37   18   19 1    
    38   18   37 1    
    39   18   88 1    
    40   19   20 am   BACKBONE|DICT|INTERRES
    41   19   89 1    
    42   20   21 2    
    43   20   22 1    
    44   22   23 1    
    45   22   24 1    
    46   22   90 1    
    47   23   91 1    
    48   23   92 1    
    49   23   93 1    
    50   24   25 am   BACKBONE|DICT|INTERRES
    51   24   94 1    
    52   25   26 2    
    53   25   27 1    
    54   27   28 1    
    55   27   29 1    
    56   27   95 1    
    57   28   96 1    
    58   28   97 1    
    59   28   98 1    
    60   29   30 am   BACKBONE|DICT|INTERRES
    61   29   99 1    
    62   30   31 2    
    63   30   32 1    
    64   32   33 1    
    65   32   34 1    
    66   32  100 1    
    67   33  101 1    
    68   33  102 1    
    69   33  103 1    
    70   34   35 am   BACKBONE|DICT|INTERRES
    71   34  104 1    
    72   35   36 2    
    73   37   38 2    
    74   37   39 am   BACKBONE|DICT|INTERRES
    75   39   40 1    
    76   39  105 1    
    77   40   41 1    
    78   40   42 1    
    79   40  106 1    
    80   41  107 1    
    81   41  108 1    
    82   41  109 1    
    83   42   43 2    
    84   42   44 am   BACKBONE|DICT|INTERRES
    85   44   45 1    
    86   44  110 1    
    87   45   46 1    
    88   45   47 1    
    89   45  111 1    
    90   46  112 1    
    91   46  113 1    
    92   46  114 1    
    93   47   48 2    
    94   47   49 am   BACKBONE|DICT|INTERRES
    95   49   50 1    
    96   49  115 1    
    97   50   51 1    
    98   50   52 1    
    99   50  116 1    
   100   51  117 1    
   101   51  118 1    
   102   51  119 1    
   103   52   53 2    
   104   52   54 am   BACKBONE|DICT|INTERRES
   105   54   55 1    
   106   54  120 1    
   107   55   56 1    
   108   55   57 1    
   109   55  121 1    
   110   56  122 1    
   111   56  123 1    
   112   56  124 1    
   113   57   58 2    
   114   57   59 am   BACKBONE|DICT|INTERRES
   115   59   60 1    
   116   59  125 1    
   117   60   61 1    
   118   60   62 1    
   119   60  126 1    
   120   61  127 1    
   121   61  128 1    
   122   61  129 1    
   123   62   63 2    
   124   62   64 am   BACKBONE|DICT|INTERRES
   125   64   65 1    
   126   64  130 1    
   127   65   66 1    
   128   65   69 1    
   129   65  131 1    
   130   66   67 am   BACKBONE|DICT|INTERRES
   131   66   68 2    
   132   67  132 1    
   133   67  133 1    
   134   69   70 1    
   135   69  134 1    
   136   69  135 1    
   137   70   71 1    
   138   71  136 1    
   139   71  137 1    
@<TRIPOS>SUBSTRUCTURE
     1 UNK         1 GROUP             0       ****    0 ROOT    
