@<TRIPOS>MOLECULE
3R137
137   139    1
SMALL
USER_CHARGES


@<TRIPOS>ATOM
      1 CA         29.8372   -3.4564   -5.1041 C.3       0 UNK        -0.2020 
      2 C          28.5478   -3.8557   -4.4043 C.2       0 UNK         0.4855 
      3 O          27.4676   -3.7246   -4.9830 O.2       0 UNK        -0.5197 
      4 N          28.6483   -4.3391   -3.1581 N.am      1 UNK        -0.4892 
      5 CA         27.5140   -4.8407   -2.3730 C.3       1 UNK         0.0835 
      6 C6         27.9734   -5.6764   -1.1496 C.3       12 UNK        -0.0855 
      7 S7         28.7009   -4.7384    0.2420 S.3       12 UNK        -0.2931 
      8 C8         30.5028   -4.9647    0.0171 C.3       12 UNK         0.0378 
      9 C9         31.1551   -3.9385   -0.9095 C.ar      12 UNK        -0.0802 
     10 C10        32.2429   -4.3151   -1.7093 C.ar      12 UNK        -0.0944 
     11 C11        32.8783   -3.3808   -2.5368 C.ar      12 UNK        -0.0787 
     12 C12        32.4165   -2.0652   -2.5594 C.ar      12 UNK        -0.0862 
     13 C13        31.3067   -1.6858   -1.8066 C.ar      12 UNK        -0.0733 
     14 C14        30.7030   -2.6132   -0.9556 C.ar      12 UNK        -0.0832 
     15 C15        30.6876   -0.3165   -2.0145 C.3       12 UNK         0.0240 
     16 S16        29.3886   -0.5107   -3.2633 S.3       12 UNK        -0.2522 
     17 C17        28.8512    1.1796   -3.6555 C.3       12 UNK        -0.0967 
     18 CA         28.5144    1.3431   -5.1657 C.3       5 UNK         0.0660 
     19 N          27.7744    0.2117   -5.7366 N.am      5 UNK        -0.4015 
     20 C          27.6712   -0.0670   -7.0434 C.2       4 UNK         0.4946 
     21 O          28.2823    0.5415   -7.9212 O.2       4 UNK        -0.5353 
     22 CA         26.7102   -1.1929   -7.4619 C.3       4 UNK         0.0277 
     23 CB         27.4642   -2.3978   -8.0403 C.3       4 UNK        -0.1981 
     24 N          25.8226   -1.6224   -6.3777 N.am      4 UNK        -0.4209 
     25 C          24.7322   -0.9307   -6.0144 C.2       3 UNK         0.4942 
     26 O          24.3852    0.1232   -6.5509 O.2       3 UNK        -0.5208 
     27 CA         23.9252   -1.4736   -4.8247 C.3       3 UNK         0.0250 
     28 CB         23.1876   -2.7677   -5.2047 C.3       3 UNK        -0.1990 
     29 N          24.7336   -1.7038   -3.6248 N.am      3 UNK        -0.4232 
     30 C          25.4665   -0.7837   -2.9847 C.2       2 UNK         0.4993 
     31 O          25.5925    0.3783   -3.3733 O.2       2 UNK        -0.5286 
     32 CA         26.2149   -1.2342   -1.7182 C.3       2 UNK         0.0209 
     33 CB         25.2868   -1.2609   -0.4885 C.3       2 UNK        -0.1931 
     34 N          26.9516   -2.4947   -1.8914 N.am      2 UNK        -0.4546 
     35 C          26.4807   -3.7446   -2.0249 C.2       1 UNK         0.5154 
     36 O          25.2860   -4.0386   -1.9579 O.2       1 UNK        -0.5181 
     37 C          27.7181    2.6355   -5.4043 C.2       5 UNK         0.5014 
     38 O          28.2672    3.6024   -5.9318 O.2       5 UNK        -0.5248 
     39 N          26.4230    2.6025   -5.0514 N.am      6 UNK        -0.4434 
     40 CA         25.4603    3.6838   -5.2688 C.3       6 UNK         0.0363 
     41 CB         24.1359    3.3335   -4.5719 C.3       6 UNK        -0.1936 
     42 C          25.2271    3.9869   -6.7581 C.2       6 UNK         0.5081 
     43 O          25.1400    5.1574   -7.1297 O.2       6 UNK        -0.5248 
     44 N          25.1570    2.9349   -7.5866 N.am      7 UNK        -0.4718 
     45 CA         25.0312    3.0460   -9.0437 C.3       7 UNK         0.0273 
     46 CB         24.5062    1.7153   -9.6061 C.3       7 UNK        -0.1935 
     47 C          26.3414    3.4408   -9.7537 C.2       7 UNK         0.5018 
     48 O          26.2827    3.8300  -10.9206 O.2       7 UNK        -0.5186 
     49 N          27.4851    3.3093   -9.0607 N.am      8 UNK        -0.4240 
     50 CA         28.8592    3.4815   -9.5545 C.3       8 UNK         0.0235 
     51 CB         29.1436    4.9618   -9.8853 C.3       8 UNK        -0.2000 
     52 C          29.1824    2.5230  -10.7198 C.2       8 UNK         0.4941 
     53 O          29.7532    2.9382  -11.7306 O.2       8 UNK        -0.5273 
     54 N          28.7759    1.2588  -10.5561 N.am      9 UNK        -0.4262 
     55 CA         28.8390    0.2016  -11.5663 C.3       9 UNK         0.0264 
     56 CB         27.4401   -0.4276  -11.6933 C.3       9 UNK        -0.1955 
     57 C          29.8906   -0.8751  -11.2458 C.2       9 UNK         0.5031 
     58 O          30.1453   -1.7244  -12.1017 O.2       9 UNK        -0.5390 
     59 N          30.4801   -0.8409  -10.0444 N.am      10 UNK        -0.4204 
     60 CA         31.5201   -1.7647   -9.5896 C.3       10 UNK         0.0237 
     61 CB         30.8824   -3.0408   -8.9980 C.3       10 UNK        -0.1985 
     62 C          32.4576   -1.0320   -8.6175 C.2       10 UNK         0.4970 
     63 O          32.6406    0.1795   -8.7541 O.2       10 UNK        -0.4914 
     64 N          33.0344   -1.7697   -7.6596 N.am      11 UNK        -0.4285 
     65 CA         33.9348   -1.2603   -6.6118 C.3       11 UNK         0.1007 
     66 C          33.3101   -0.2388   -5.6175 C.2       11 UNK         0.5703 
     67 N          31.9936   -0.0813   -5.5626 N.am      11 UNK        -0.7361 
     68 O          34.0379    0.4240   -4.8825 O.2       11 UNK        -0.4986 
     69 C69        34.6817   -2.4149   -5.8823 C.3       12 UNK        -0.0947 
     70 S70        33.5991   -3.7273   -5.1983 S.3       12 UNK        -0.2240 
     71 C71        34.0484   -3.7801   -3.4266 C.3       12 UNK         0.0194 
     72 H72        30.6813   -3.4558   -4.4171 H         1 UNK         0.0906 
     73 H73        30.0568   -4.1516   -5.9134 H         1 UNK         0.0906 
     74 H74        29.7476   -2.4552   -5.5227 H         1 UNK         0.0906 
     75 H75        29.5528   -4.3861   -2.7080 H         1 UNK         0.3140 
     76 H76        26.9827   -5.5326   -3.0312 H         1 UNK         0.1085 
     77 H77        28.6724   -6.4499   -1.4715 H         1 UNK         0.0836 
     78 H78        27.1157   -6.2214   -0.7509 H         1 UNK         0.0836 
     79 H79        30.7007   -5.9807   -0.3279 H         1 UNK         0.0731 
     80 H80        30.9788   -4.8791    0.9947 H         1 UNK         0.0731 
     81 H81        32.6001   -5.3358   -1.6839 H         1 UNK         0.1312 
     82 H82        32.8917   -1.3469   -3.2063 H         1 UNK         0.1406 
     83 H83        29.8550   -2.3051   -0.3597 H         1 UNK         0.1631 
     84 H84        31.4353    0.4019   -2.3544 H         1 UNK         0.0717 
     85 H85        30.2635    0.0676   -1.0856 H         1 UNK         0.0717 
     86 H86        27.9933    1.4042   -3.0198 H         1 UNK         0.0934 
     87 H87        29.6305    1.8875   -3.3678 H         1 UNK         0.0934 
     88 H88        29.4568    1.4280   -5.7110 H         1 UNK         0.0739 
     89 H89        27.2390   -0.3402   -5.0829 H         1 UNK         0.3093 
     90 H90        26.0927   -0.7950   -8.2676 H         1 UNK         0.0818 
     91 H91        28.0714   -2.1033   -8.8957 H         1 UNK         0.0819 
     92 H92        28.1305   -2.8510   -7.3112 H         1 UNK         0.0819 
     93 H93        26.7746   -3.1681   -8.3856 H         1 UNK         0.0819 
     94 H94        26.0947   -2.4563   -5.8637 H         1 UNK         0.3041 
     95 H95        23.1774   -0.7197   -4.5700 H         1 UNK         0.0784 
     96 H96        22.5788   -2.6232   -6.0984 H         1 UNK         0.0793 
     97 H97        23.8806   -3.5852   -5.4088 H         1 UNK         0.0793 
     98 H98        22.5180   -3.0897   -4.4070 H         1 UNK         0.0793 
     99 H99        24.7112   -2.6352   -3.2204 H         1 UNK         0.3024 
    100 H100       26.9732   -0.4747   -1.5230 H         1 UNK         0.1171 
    101 H101       25.8314   -1.5461    0.4117 H         1 UNK         0.0786 
    102 H102       24.8569   -0.2746   -0.3088 H         1 UNK         0.0786 
    103 H103       24.4553   -1.9550   -0.6117 H         1 UNK         0.0786 
    104 H104       27.9462   -2.3833   -2.0377 H         1 UNK         0.2977 
    105 H105       26.0662    1.7702   -4.5853 H         1 UNK         0.3127 
    106 H106       25.8643    4.5863   -4.8055 H         1 UNK         0.0770 
    107 H107       23.7003    2.4164   -4.9713 H         1 UNK         0.0814 
    108 H108       23.4019    4.1297   -4.7030 H         1 UNK         0.0814 
    109 H109       24.2772    3.1946   -3.4999 H         1 UNK         0.0814 
    110 H110       25.1546    2.0001   -7.1911 H         1 UNK         0.2983 
    111 H111       24.2949    3.8216   -9.2664 H         1 UNK         0.0947 
    112 H112       24.2919    1.8011  -10.6723 H         1 UNK         0.0806 
    113 H113       23.5834    1.4079   -9.1134 H         1 UNK         0.0806 
    114 H114       25.2348    0.9147   -9.4882 H         1 UNK         0.0806 
    115 H115       27.4132    2.9861   -8.1050 H         1 UNK         0.3000 
    116 H116       29.5160    3.1943   -8.7316 H         1 UNK         0.0850 
    117 H117       30.1933    5.1093  -10.1417 H         1 UNK         0.0810 
    118 H118       28.9245    5.6057   -9.0335 H         1 UNK         0.0810 
    119 H119       28.5504    5.3103  -10.7314 H         1 UNK         0.0810 
    120 H120       28.3883    1.0025   -9.6479 H         1 UNK         0.3040 
    121 H121       29.1066    0.6260  -12.5361 H         1 UNK         0.0766 
    122 H122       26.7004    0.3154  -11.9924 H         1 UNK         0.0812 
    123 H123       27.1068   -0.8697  -10.7545 H         1 UNK         0.0812 
    124 H124       27.4298   -1.2152  -12.4480 H         1 UNK         0.0812 
    125 H125       30.2674   -0.0758   -9.4167 H         1 UNK         0.3205 
    126 H126       32.1352   -2.0504  -10.4455 H         1 UNK         0.0754 
    127 H127       31.6300   -3.8128   -8.8127 H         1 UNK         0.0769 
    128 H128       30.1511   -3.4733   -9.6811 H         1 UNK         0.0769 
    129 H129       30.3767   -2.8345   -8.0557 H         1 UNK         0.0769 
    130 H130       32.8215   -2.7545   -7.6041 H         1 UNK         0.2981 
    131 H131       34.7008   -0.6878   -7.1382 H         1 UNK         0.0541 
    132 H132       31.3909   -0.6185   -6.1607 H         1 UNK         0.3459 
    133 H133       31.6063    0.5762   -4.9078 H         1 UNK         0.3459 
    134 H134       35.3353   -2.0160   -5.1054 H         1 UNK         0.0612 
    135 H135       35.3529   -2.9013   -6.5915 H         1 UNK         0.0612 
    136 H136       34.3785   -4.7920   -3.1876 H         1 UNK         0.0624 
    137 H137       34.8975   -3.1294   -3.2171 H         1 UNK         0.0624 
@<TRIPOS>BOND
     1    1    2 1    
     2    1   72 1    
     3    1   73 1    
     4    1   74 1    
     5    2    3 2    
     6    2    4 am   BACKBONE|DICT|INTERRES
     7    4    5 1    
     8    4   75 1    
     9    5    6 1    
    10    5   35 1    
    11    5   76 1    
    12    6    7 1    
    13    6   77 1    
    14    6   78 1    
    15    7    8 1    
    16    8    9 1    
    17    8   79 1    
    18    8   80 1    
    19    9   10 ar   
    20    9   14 ar   
    21   10   11 ar   
    22   10   81 1    
    23   11   12 ar   
    24   11   71 1    
    25   12   13 ar   
    26   12   82 1    
    27   13   14 ar   
    28   13   15 1    
    29   14   83 1    
    30   15   16 1    
    31   15   84 1    
    32   15   85 1    
    33   16   17 1    
    34   17   18 1    
    35   17   86 1    
    36   17   87 1    
    37   18   19 1    
    38   18   37 1    
    39   18   88 1    
    40   19   20 am   BACKBONE|DICT|INTERRES
    41   19   89 1    
    42   20   21 2    
    43   20   22 1    
    44   22   23 1    
    45   22   24 1    
    46   22   90 1    
    47   23   91 1    
    48   23   92 1    
    49   23   93 1    
    50   24   25 am   BACKBONE|DICT|INTERRES
    51   24   94 1    
    52   25   26 2    
    53   25   27 1    
    54   27   28 1    
    55   27   29 1    
    56   27   95 1    
    57   28   96 1    
    58   28   97 1    
    59   28   98 1    
    60   29   30 am   BACKBONE|DICT|INTERRES
    61   29   99 1    
    62   30   31 2    
    63   30   32 1    
    64   32   33 1    
    65   32   34 1    
    66   32  100 1    
    67   33  101 1    
    68   33  102 1    
    69   33  103 1    
    70   34   35 am   BACKBONE|DICT|INTERRES
    71   34  104 1    
    72   35   36 2    
    73   37   38 2    
    74   37   39 am   BACKBONE|DICT|INTERRES
    75   39   40 1    
    76   39  105 1    
    77   40   41 1    
    78   40   42 1    
    79   40  106 1    
    80   41  107 1    
    81   41  108 1    
    82   41  109 1    
    83   42   43 2    
    84   42   44 am   BACKBONE|DICT|INTERRES
    85   44   45 1    
    86   44  110 1    
    87   45   46 1    
    88   45   47 1    
    89   45  111 1    
    90   46  112 1    
    91   46  113 1    
    92   46  114 1    
    93   47   48 2    
    94   47   49 am   BACKBONE|DICT|INTERRES
    95   49   50 1    
    96   49  115 1    
    97   50   51 1    
    98   50   52 1    
    99   50  116 1    
   100   51  117 1    
   101   51  118 1    
   102   51  119 1    
   103   52   53 2    
   104   52   54 am   BACKBONE|DICT|INTERRES
   105   54   55 1    
   106   54  120 1    
   107   55   56 1    
   108   55   57 1    
   109   55  121 1    
   110   56  122 1    
   111   56  123 1    
   112   56  124 1    
   113   57   58 2    
   114   57   59 am   BACKBONE|DICT|INTERRES
   115   59   60 1    
   116   59  125 1    
   117   60   61 1    
   118   60   62 1    
   119   60  126 1    
   120   61  127 1    
   121   61  128 1    
   122   61  129 1    
   123   62   63 2    
   124   62   64 am   BACKBONE|DICT|INTERRES
   125   64   65 1    
   126   64  130 1    
   127   65   66 1    
   128   65   69 1    
   129   65  131 1    
   130   66   67 am   BACKBONE|DICT|INTERRES
   131   66   68 2    
   132   67  132 1    
   133   67  133 1    
   134   69   70 1    
   135   69  134 1    
   136   69  135 1    
   137   70   71 1    
   138   71  136 1    
   139   71  137 1    
@<TRIPOS>SUBSTRUCTURE
     1 UNK         1 GROUP             0       ****    0 ROOT    
