@<TRIPOS>MOLECULE
3R137
137   139    1
SMALL
USER_CHARGES


@<TRIPOS>ATOM
      1 CA         29.9050   -0.3324    1.5042 C.3       0 UNK        -0.2020 
      2 C          29.2387   -1.0020    0.3116 C.2       0 UNK         0.4855 
      3 O          28.8065   -0.3139   -0.6132 O.2       0 UNK        -0.5197 
      4 N          29.1602   -2.3384    0.3222 N.am      1 UNK        -0.4892 
      5 CA         28.5339   -3.1474   -0.7283 C.3       1 UNK         0.0835 
      6 C6         28.9516   -4.6409   -0.6580 C.3       12 UNK        -0.0855 
      7 S7         30.7635   -4.8765   -0.5634 S.3       12 UNK        -0.2931 
      8 C8         31.2078   -5.3208   -2.2774 C.3       12 UNK         0.0378 
      9 C9         30.8674   -4.2392   -3.2983 C.ar      12 UNK        -0.0802 
     10 C10        31.1933   -2.8977   -3.0658 C.ar      12 UNK        -0.0944 
     11 C11        30.8427   -1.9061   -3.9867 C.ar      12 UNK        -0.0787 
     12 C12        30.1894   -2.2734   -5.1680 C.ar      12 UNK        -0.0862 
     13 C13        29.8994   -3.6144   -5.4357 C.ar      12 UNK        -0.0733 
     14 C14        30.2341   -4.5908   -4.4940 C.ar      12 UNK        -0.0832 
     15 C15        29.2457   -4.0116   -6.7519 C.3       12 UNK         0.0240 
     16 S16        27.5553   -4.6523   -6.5457 S.3       12 UNK        -0.2522 
     17 C17        26.6899   -3.2408   -5.7871 C.3       12 UNK        -0.0967 
     18 CA         26.1903   -2.1976   -6.8236 C.3       5 UNK         0.0660 
     19 N          24.8651   -1.6872   -6.4770 N.am      5 UNK        -0.4015 
     20 C          24.0163   -1.0993   -7.3303 C.2       4 UNK         0.4946 
     21 O          24.2256   -0.9831   -8.5373 O.2       4 UNK        -0.5353 
     22 CA         22.7156   -0.5317   -6.7325 C.3       4 UNK         0.0277 
     23 CB         21.5791   -1.5604   -6.8449 C.3       4 UNK        -0.1981 
     24 N          22.8564   -0.1131   -5.3337 N.am      4 UNK        -0.4209 
     25 C          23.5950    0.9309   -4.9320 C.2       3 UNK         0.4942 
     26 O          24.2075    1.6702   -5.7005 O.2       3 UNK        -0.5208 
     27 CA         23.7160    1.1527   -3.4150 C.3       3 UNK         0.0250 
     28 CB         22.4967    1.9221   -2.8823 C.3       3 UNK        -0.1990 
     29 N          23.9030   -0.0799   -2.6369 N.am      3 UNK        -0.4232 
     30 C          24.9060   -0.9511   -2.8119 C.2       2 UNK         0.4993 
     31 O          25.7341   -0.8730   -3.7236 O.2       2 UNK        -0.5286 
     32 CA         24.9919   -2.1260   -1.8351 C.3       2 UNK         0.0209 
     33 CB         24.1390   -3.3129   -2.3149 C.3       2 UNK        -0.1931 
     34 N          26.3950   -2.5203   -1.7521 N.am      2 UNK        -0.4546 
     35 C          27.0023   -2.9878   -0.6584 C.2       1 UNK         0.5154 
     36 O          26.4095   -3.2703    0.3868 O.2       1 UNK        -0.5181 
     37 C          27.1749   -1.0243   -6.9815 C.2       5 UNK         0.5014 
     38 O          27.8654   -0.9368   -7.9966 O.2       5 UNK        -0.5248 
     39 N          27.1909   -0.1221   -5.9897 N.am      6 UNK        -0.4434 
     40 CA         28.0206    1.0852   -5.9430 C.3       6 UNK         0.0363 
     41 CB         27.8512    1.7532   -4.5698 C.3       6 UNK        -0.1936 
     42 C          27.7273    2.0896   -7.0715 C.2       6 UNK         0.5081 
     43 O          28.6237    2.8311   -7.4710 O.2       6 UNK        -0.5248 
     44 N          26.4873    2.0948   -7.5763 N.am      7 UNK        -0.4718 
     45 CA         26.0762    2.8598   -8.7539 C.3       7 UNK         0.0273 
     46 CB         24.5412    2.9363   -8.7877 C.3       7 UNK        -0.1935 
     47 C          26.6096    2.2797  -10.0781 C.2       7 UNK         0.5018 
     48 O          26.6692    3.0165  -11.0634 O.2       7 UNK        -0.5186 
     49 N          26.9570    0.9855  -10.0953 N.am      8 UNK        -0.4240 
     50 CA         27.4055    0.2601  -11.2826 C.3       8 UNK         0.0235 
     51 CB         26.7184   -1.1162  -11.3271 C.3       8 UNK        -0.2000 
     52 C          28.9324    0.1096  -11.3151 C.2       8 UNK         0.4941 
     53 O          29.5471    0.4428  -12.3296 O.2       8 UNK        -0.5273 
     54 N          29.5172   -0.4115  -10.2293 N.am      9 UNK        -0.4262 
     55 CA         30.9491   -0.6924  -10.1227 C.3       9 UNK         0.0264 
     56 CB         31.1636   -1.8396   -9.1231 C.3       9 UNK        -0.1955 
     57 C          31.7299    0.5443   -9.6638 C.2       9 UNK         0.5031 
     58 O          31.2512    1.2927   -8.8108 O.2       9 UNK        -0.5390 
     59 N          32.9629    0.6883  -10.1633 N.am      10 UNK        -0.4204 
     60 CA         33.9266    1.7088   -9.7389 C.3       10 UNK         0.0237 
     61 CB         34.8615    2.0357  -10.9195 C.3       10 UNK        -0.1985 
     62 C          34.6926    1.2618   -8.4760 C.2       10 UNK         0.4970 
     63 O          35.9252    1.2489   -8.4727 O.2       10 UNK        -0.4914 
     64 N          33.9467    0.8650   -7.4392 N.am      11 UNK        -0.4285 
     65 CA         34.4626    0.4280   -6.1357 C.3       11 UNK         0.1007 
     66 C          35.0650    1.5844   -5.2873 C.2       11 UNK         0.5703 
     67 N          35.8825    1.2590   -4.2946 N.am      11 UNK        -0.7361 
     68 O          34.7911    2.7643   -5.5027 O.2       11 UNK        -0.4986 
     69 C69        33.4016   -0.3984   -5.3601 C.3       12 UNK        -0.0947 
     70 S70        31.8307    0.4871   -5.0802 S.3       12 UNK        -0.2240 
     71 C71        31.1422   -0.4430   -3.6715 C.3       12 UNK         0.0194 
     72 H72        30.2541   -1.0586    2.2381 H         1 UNK         0.0906 
     73 H73        29.2026    0.3386    1.9981 H         1 UNK         0.0906 
     74 H74        30.7619    0.2542    1.1738 H         1 UNK         0.0906 
     75 H75        29.5247   -2.8585    1.1076 H         1 UNK         0.3140 
     76 H76        28.8684   -2.7533   -1.6892 H         1 UNK         0.1085 
     77 H77        28.5155   -5.1180    0.2220 H         1 UNK         0.0836 
     78 H78        28.5607   -5.1854   -1.5199 H         1 UNK         0.0836 
     79 H79        32.2803   -5.5143   -2.3214 H         1 UNK         0.0731 
     80 H80        30.7149   -6.2611   -2.5292 H         1 UNK         0.0731 
     81 H81        31.6920   -2.6223   -2.1464 H         1 UNK         0.1312 
     82 H82        29.9177   -1.5125   -5.8854 H         1 UNK         0.1406 
     83 H83        29.9970   -5.6265   -4.6975 H         1 UNK         0.1631 
     84 H84        29.8545   -4.7775   -7.2341 H         1 UNK         0.0717 
     85 H85        29.2172   -3.1715   -7.4434 H         1 UNK         0.0717 
     86 H86        25.8397   -3.6791   -5.2633 H         1 UNK         0.0934 
     87 H87        27.3003   -2.7965   -4.9991 H         1 UNK         0.0934 
     88 H88        26.1013   -2.6838   -7.7979 H         1 UNK         0.0739 
     89 H89        24.6434   -1.6672   -5.4917 H         1 UNK         0.3093 
     90 H90        22.4419    0.3466   -7.3216 H         1 UNK         0.0818 
     91 H91        20.6318   -1.1447   -6.5010 H         1 UNK         0.0819 
     92 H92        21.4365   -1.8711   -7.8810 H         1 UNK         0.0819 
     93 H93        21.7851   -2.4585   -6.2612 H         1 UNK         0.0819 
     94 H94        22.3791   -0.6644   -4.6352 H         1 UNK         0.3041 
     95 H95        24.6011    1.7710   -3.2521 H         1 UNK         0.0784 
     96 H96        22.3488    2.8505   -3.4361 H         1 UNK         0.0793 
     97 H97        21.5784    1.3402   -2.9707 H         1 UNK         0.0793 
     98 H98        22.6243    2.1913   -1.8337 H         1 UNK         0.0793 
     99 H99        23.2549   -0.2315   -1.8768 H         1 UNK         0.3024 
    100 H100       24.6438   -1.7907   -0.8550 H         1 UNK         0.1171 
    101 H101       23.0868   -3.0361   -2.3911 H         1 UNK         0.0786 
    102 H102       24.2024   -4.1497   -1.6190 H         1 UNK         0.0786 
    103 H103       24.4560   -3.6711   -3.2943 H         1 UNK         0.0786 
    104 H104       26.9459   -2.2291   -2.5508 H         1 UNK         0.2977 
    105 H105       26.6023   -0.2939   -5.1749 H         1 UNK         0.3127 
    106 H106       29.0596    0.7725   -6.0532 H         1 UNK         0.0770 
    107 H107       26.8333    2.1169   -4.4256 H         1 UNK         0.0814 
    108 H108       28.5229    2.6062   -4.4667 H         1 UNK         0.0814 
    109 H109       28.0751    1.0617   -3.7576 H         1 UNK         0.0814 
    110 H110       25.7727    1.5456   -7.1113 H         1 UNK         0.2983 
    111 H111       26.4683    3.8748   -8.6600 H         1 UNK         0.0947 
    112 H112       24.1959    3.5162   -9.6446 H         1 UNK         0.0806 
    113 H113       24.1484    3.4180   -7.8921 H         1 UNK         0.0806 
    114 H114       24.0908    1.9454   -8.8597 H         1 UNK         0.0806 
    115 H115       26.9388    0.4634   -9.2272 H         1 UNK         0.3000 
    116 H116       27.1085    0.8018  -12.1833 H         1 UNK         0.0850 
    117 H117       27.0284   -1.6792  -12.2084 H         1 UNK         0.0810 
    118 H118       25.6340   -1.0132  -11.3720 H         1 UNK         0.0810 
    119 H119       26.9553   -1.7221  -10.4520 H         1 UNK         0.0810 
    120 H120       28.9492   -0.6072   -9.4060 H         1 UNK         0.3040 
    121 H121       31.3233   -1.0123  -11.0979 H         1 UNK         0.0766 
    122 H122       32.2178   -2.1113   -9.0558 H         1 UNK         0.0812 
    123 H123       30.6167   -2.7338   -9.4219 H         1 UNK         0.0812 
    124 H124       30.8378   -1.5587   -8.1213 H         1 UNK         0.0812 
    125 H125       33.3014    0.0018  -10.8229 H         1 UNK         0.3205 
    126 H126       33.3908    2.6247   -9.4800 H         1 UNK         0.0754 
    127 H127       35.4470    1.1678  -11.2254 H         1 UNK         0.0769 
    128 H128       34.2985    2.3832  -11.7860 H         1 UNK         0.0769 
    129 H129       35.5639    2.8273  -10.6547 H         1 UNK         0.0769 
    130 H130       32.9395    0.9512   -7.5119 H         1 UNK         0.2981 
    131 H131       35.2924   -0.2492   -6.3478 H         1 UNK         0.0541 
    132 H132       36.1138    0.2970   -4.1020 H         1 UNK         0.3459 
    133 H133       36.2785    1.9921   -3.7274 H         1 UNK         0.3459 
    134 H134       33.1720   -1.3085   -5.9166 H         1 UNK         0.0612 
    135 H135       33.8014   -0.7328   -4.4014 H         1 UNK         0.0612 
    136 H136       31.8344   -0.3615   -2.8320 H         1 UNK         0.0624 
    137 H137       30.2173    0.0377   -3.3526 H         1 UNK         0.0624 
@<TRIPOS>BOND
     1    1    2 1    
     2    1   72 1    
     3    1   73 1    
     4    1   74 1    
     5    2    3 2    
     6    2    4 am   BACKBONE|DICT|INTERRES
     7    4    5 1    
     8    4   75 1    
     9    5    6 1    
    10    5   35 1    
    11    5   76 1    
    12    6    7 1    
    13    6   77 1    
    14    6   78 1    
    15    7    8 1    
    16    8    9 1    
    17    8   79 1    
    18    8   80 1    
    19    9   10 ar   
    20    9   14 ar   
    21   10   11 ar   
    22   10   81 1    
    23   11   12 ar   
    24   11   71 1    
    25   12   13 ar   
    26   12   82 1    
    27   13   14 ar   
    28   13   15 1    
    29   14   83 1    
    30   15   16 1    
    31   15   84 1    
    32   15   85 1    
    33   16   17 1    
    34   17   18 1    
    35   17   86 1    
    36   17   87 1    
    37   18   19 1    
    38   18   37 1    
    39   18   88 1    
    40   19   20 am   BACKBONE|DICT|INTERRES
    41   19   89 1    
    42   20   21 2    
    43   20   22 1    
    44   22   23 1    
    45   22   24 1    
    46   22   90 1    
    47   23   91 1    
    48   23   92 1    
    49   23   93 1    
    50   24   25 am   BACKBONE|DICT|INTERRES
    51   24   94 1    
    52   25   26 2    
    53   25   27 1    
    54   27   28 1    
    55   27   29 1    
    56   27   95 1    
    57   28   96 1    
    58   28   97 1    
    59   28   98 1    
    60   29   30 am   BACKBONE|DICT|INTERRES
    61   29   99 1    
    62   30   31 2    
    63   30   32 1    
    64   32   33 1    
    65   32   34 1    
    66   32  100 1    
    67   33  101 1    
    68   33  102 1    
    69   33  103 1    
    70   34   35 am   BACKBONE|DICT|INTERRES
    71   34  104 1    
    72   35   36 2    
    73   37   38 2    
    74   37   39 am   BACKBONE|DICT|INTERRES
    75   39   40 1    
    76   39  105 1    
    77   40   41 1    
    78   40   42 1    
    79   40  106 1    
    80   41  107 1    
    81   41  108 1    
    82   41  109 1    
    83   42   43 2    
    84   42   44 am   BACKBONE|DICT|INTERRES
    85   44   45 1    
    86   44  110 1    
    87   45   46 1    
    88   45   47 1    
    89   45  111 1    
    90   46  112 1    
    91   46  113 1    
    92   46  114 1    
    93   47   48 2    
    94   47   49 am   BACKBONE|DICT|INTERRES
    95   49   50 1    
    96   49  115 1    
    97   50   51 1    
    98   50   52 1    
    99   50  116 1    
   100   51  117 1    
   101   51  118 1    
   102   51  119 1    
   103   52   53 2    
   104   52   54 am   BACKBONE|DICT|INTERRES
   105   54   55 1    
   106   54  120 1    
   107   55   56 1    
   108   55   57 1    
   109   55  121 1    
   110   56  122 1    
   111   56  123 1    
   112   56  124 1    
   113   57   58 2    
   114   57   59 am   BACKBONE|DICT|INTERRES
   115   59   60 1    
   116   59  125 1    
   117   60   61 1    
   118   60   62 1    
   119   60  126 1    
   120   61  127 1    
   121   61  128 1    
   122   61  129 1    
   123   62   63 2    
   124   62   64 am   BACKBONE|DICT|INTERRES
   125   64   65 1    
   126   64  130 1    
   127   65   66 1    
   128   65   69 1    
   129   65  131 1    
   130   66   67 am   BACKBONE|DICT|INTERRES
   131   66   68 2    
   132   67  132 1    
   133   67  133 1    
   134   69   70 1    
   135   69  134 1    
   136   69  135 1    
   137   70   71 1    
   138   71  136 1    
   139   71  137 1    
@<TRIPOS>SUBSTRUCTURE
     1 UNK         1 GROUP             0       ****    0 ROOT    
