@<TRIPOS>MOLECULE
3R137
137   139    1
SMALL
USER_CHARGES


@<TRIPOS>ATOM
      1 CA         23.0734   -4.7299   -3.1517 C.3       0 UNK        -0.2020 
      2 C          24.0799   -4.1122   -2.1934 C.2       0 UNK         0.4855 
      3 O          23.7417   -3.1773   -1.4670 O.2       0 UNK        -0.5197 
      4 N          25.3193   -4.6200   -2.1975 N.am      1 UNK        -0.4892 
      5 CA         26.4456   -4.1570   -1.3784 C.3       1 UNK         0.0835 
      6 C6         27.6662   -5.0867   -1.5762 C.3       12 UNK        -0.0855 
      7 S7         29.0061   -4.7922   -0.3722 S.3       12 UNK        -0.2931 
      8 C8         30.4830   -5.1818   -1.3683 C.3       12 UNK         0.0378 
      9 C9         30.7067   -4.1699   -2.4839 C.ar      12 UNK        -0.0802 
     10 C10        30.4334   -4.5075   -3.8131 C.ar      12 UNK        -0.0944 
     11 C11        30.6171   -3.5736   -4.8367 C.ar      12 UNK        -0.0787 
     12 C12        31.1049   -2.3024   -4.5205 C.ar      12 UNK        -0.0862 
     13 C13        31.3776   -1.9465   -3.1953 C.ar      12 UNK        -0.0733 
     14 C14        31.1814   -2.8907   -2.1833 C.ar      12 UNK        -0.0832 
     15 C15        31.8758   -0.5492   -2.8280 C.3       12 UNK         0.0240 
     16 S16        31.1324    0.8163   -3.7909 S.3       12 UNK        -0.2522 
     17 C17        29.3439    0.4672   -3.6913 C.3       12 UNK        -0.0967 
     18 CA         28.7244    0.2813   -5.1038 C.3       5 UNK         0.0660 
     19 N          27.6646   -0.7321   -5.1096 N.am      5 UNK        -0.4015 
     20 C          27.0174   -1.1737   -6.1984 C.2       4 UNK         0.4946 
     21 O          27.2897   -0.8376   -7.3489 O.2       4 UNK        -0.5353 
     22 CA         25.8124   -2.0962   -5.9596 C.3       4 UNK         0.0277 
     23 CB         26.2524   -3.5584   -5.7752 C.3       4 UNK        -0.1981 
     24 N          25.0192   -1.6451   -4.8132 N.am      4 UNK        -0.4209 
     25 C          24.2710   -0.5302   -4.8181 C.2       3 UNK         0.4942 
     26 O          24.0995    0.1696   -5.8153 O.2       3 UNK        -0.5208 
     27 CA         23.6538   -0.0865   -3.4813 C.3       3 UNK         0.0250 
     28 CB         22.2545   -0.6919   -3.2927 C.3       3 UNK        -0.1990 
     29 N          24.5070   -0.4131   -2.3351 N.am      3 UNK        -0.4232 
     30 C          25.6664    0.2118   -2.0749 C.2       2 UNK         0.4993 
     31 O          26.0960    1.1495   -2.7461 O.2       2 UNK        -0.5286 
     32 CA         26.5224   -0.3274   -0.9141 C.3       2 UNK         0.0209 
     33 CB         26.1448    0.3694    0.4022 C.3       2 UNK        -0.1931 
     34 N          26.4305   -1.7809   -0.7441 N.am      2 UNK        -0.4546 
     35 C          26.7653   -2.6770   -1.6828 C.2       1 UNK         0.5154 
     36 O          27.2277   -2.3635   -2.7814 O.2       1 UNK        -0.5181 
     37 C          28.2560    1.6309   -5.6892 C.2       5 UNK         0.5014 
     38 O          28.9854    2.2445   -6.4674 O.2       5 UNK        -0.5248 
     39 N          27.0444    2.0661   -5.3136 N.am      6 UNK        -0.4434 
     40 CA         26.4006    3.2701   -5.8409 C.3       6 UNK         0.0363 
     41 CB         25.1583    3.6020   -4.9990 C.3       6 UNK        -0.1936 
     42 C          26.0337    3.1499   -7.3306 C.2       6 UNK         0.5081 
     43 O          26.2156    4.1151   -8.0732 O.2       6 UNK        -0.5248 
     44 N          25.5186    1.9815   -7.7393 N.am      7 UNK        -0.4718 
     45 CA         25.1261    1.6882   -9.1191 C.3       7 UNK         0.0273 
     46 CB         24.2556    0.4214   -9.1511 C.3       7 UNK        -0.1935 
     47 C          26.3266    1.5486  -10.0694 C.2       7 UNK         0.5018 
     48 O          26.3256    2.1644  -11.1364 O.2       7 UNK        -0.5186 
     49 N          27.3185    0.7427   -9.6740 N.am      8 UNK        -0.4240 
     50 CA         28.5253    0.4552  -10.4418 C.3       8 UNK         0.0235 
     51 CB         28.6600   -1.0709  -10.6066 C.3       8 UNK        -0.2000 
     52 C          29.7231    1.0616   -9.7050 C.2       8 UNK         0.4941 
     53 O          30.4018    0.3596   -8.9570 O.2       8 UNK        -0.5273 
     54 N          29.9760    2.3563   -9.9400 N.am      9 UNK        -0.4262 
     55 CA         31.0294    3.1500   -9.2883 C.3       9 UNK         0.0264 
     56 CB         30.9367    4.6038   -9.7804 C.3       9 UNK        -0.1955 
     57 C          32.4678    2.6152   -9.4550 C.2       9 UNK         0.5031 
     58 O          33.3319    2.9560   -8.6460 O.2       9 UNK        -0.5390 
     59 N          32.7038    1.7934  -10.4869 N.am      10 UNK        -0.4204 
     60 CA         33.9654    1.0895  -10.7270 C.3       10 UNK         0.0237 
     61 CB         34.0190    0.6563  -12.2018 C.3       10 UNK        -0.1985 
     62 C          34.1830   -0.1266   -9.8030 C.2       10 UNK         0.4970 
     63 O          35.3219   -0.5817   -9.6875 O.2       10 UNK        -0.4914 
     64 N          33.1127   -0.6507   -9.1896 N.am      11 UNK        -0.4285 
     65 CA         33.1497   -1.7829   -8.2551 C.3       11 UNK         0.1007 
     66 C          33.8099   -1.4001   -6.9005 C.2       11 UNK         0.5703 
     67 N          34.5444   -2.3165   -6.2846 N.am      11 UNK        -0.7361 
     68 O          33.6453   -0.2928   -6.3936 O.2       11 UNK        -0.4986 
     69 C69        31.7242   -2.3669   -8.0813 C.3       12 UNK        -0.0947 
     70 S70        31.6857   -4.0462   -7.3703 S.3       12 UNK        -0.2240 
     71 C71        30.2397   -3.9293   -6.2693 C.3       12 UNK         0.0194 
     72 H72        22.8950   -4.0623   -3.9940 H         1 UNK         0.0906 
     73 H73        23.4197   -5.6863   -3.5432 H         1 UNK         0.0906 
     74 H74        22.1248   -4.8991   -2.6429 H         1 UNK         0.0906 
     75 H75        25.5316   -5.3778   -2.8307 H         1 UNK         0.3140 
     76 H76        26.1327   -4.2351   -0.3348 H         1 UNK         0.1085 
     77 H77        27.3610   -6.1282   -1.4618 H         1 UNK         0.0836 
     78 H78        28.0406   -4.9985   -2.5961 H         1 UNK         0.0836 
     79 H79        30.3902   -6.1915   -1.7716 H         1 UNK         0.0731 
     80 H80        31.3562   -5.1948   -0.7145 H         1 UNK         0.0731 
     81 H81        30.0563   -5.4934   -4.0480 H         1 UNK         0.1312 
     82 H82        31.2563   -1.5758   -5.3031 H         1 UNK         0.1406 
     83 H83        31.3848   -2.6295   -1.1534 H         1 UNK         0.1631 
     84 H84        32.9575   -0.5196   -2.9641 H         1 UNK         0.0717 
     85 H85        31.6913   -0.3498   -1.7713 H         1 UNK         0.0717 
     86 H86        29.1941   -0.4287   -3.0881 H         1 UNK         0.0934 
     87 H87        28.8563    1.2670   -3.1301 H         1 UNK         0.0934 
     88 H88        29.4888   -0.1020   -5.7831 H         1 UNK         0.0739 
     89 H89        27.4198   -1.1416   -4.2115 H         1 UNK         0.3093 
     90 H90        25.1769   -2.0500   -6.8467 H         1 UNK         0.0818 
     91 H91        26.7632   -3.9197   -6.6688 H         1 UNK         0.0819 
     92 H92        26.9432   -3.6833   -4.9419 H         1 UNK         0.0819 
     93 H93        25.3974   -4.2126   -5.6057 H         1 UNK         0.0819 
     94 H94        25.1728   -2.1230   -3.9370 H         1 UNK         0.3041 
     95 H95        23.5422    0.9994   -3.5170 H         1 UNK         0.0784 
     96 H96        21.5933   -0.4006   -4.1101 H         1 UNK         0.0793 
     97 H97        22.2789   -1.7804   -3.2689 H         1 UNK         0.0793 
     98 H98        21.7949   -0.3470   -2.3663 H         1 UNK         0.0793 
     99 H99        24.2346   -1.2117   -1.7692 H         1 UNK         0.3024 
    100 H100       27.5632   -0.0879   -1.1416 H         1 UNK         0.1171 
    101 H101       26.8059    0.0680    1.2151 H         1 UNK         0.0786 
    102 H102       26.2259    1.4532    0.3064 H         1 UNK         0.0786 
    103 H103       25.1199    0.1441    0.7000 H         1 UNK         0.0786 
    104 H104       26.0159   -2.1103    0.1161 H         1 UNK         0.2977 
    105 H105       26.5491    1.5612   -4.5830 H         1 UNK         0.3127 
    106 H106       27.1081    4.0959   -5.7396 H         1 UNK         0.0770 
    107 H107       24.4076    2.8137   -5.0581 H         1 UNK         0.0814 
    108 H108       24.6896    4.5245   -5.3442 H         1 UNK         0.0814 
    109 H109       25.4155    3.7411   -3.9488 H         1 UNK         0.0814 
    110 H110       25.3449    1.2562   -7.0508 H         1 UNK         0.2983 
    111 H111       24.5180    2.5213   -9.4787 H         1 UNK         0.0947 
    112 H112       23.9387    0.1897  -10.1689 H         1 UNK         0.0806 
    113 H113       23.3540    0.5458   -8.5510 H         1 UNK         0.0806 
    114 H114       24.7921   -0.4478   -8.7693 H         1 UNK         0.0806 
    115 H115       27.2588    0.2838   -8.7640 H         1 UNK         0.3000 
    116 H116       28.4761    0.8973  -11.4392 H         1 UNK         0.0850 
    117 H117       29.5727   -1.3271  -11.1458 H         1 UNK         0.0810 
    118 H118       27.8221   -1.4821  -11.1694 H         1 UNK         0.0810 
    119 H119       28.6954   -1.5817   -9.6430 H         1 UNK         0.0810 
    120 H120       29.3555    2.8584  -10.5596 H         1 UNK         0.3040 
    121 H121       30.8177    3.1408   -8.2174 H         1 UNK         0.0766 
    122 H122       31.1011    4.6771  -10.8561 H         1 UNK         0.0812 
    123 H123       29.9615    5.0371   -9.5569 H         1 UNK         0.0812 
    124 H124       31.6850    5.2304   -9.2928 H         1 UNK         0.0812 
    125 H125       31.9363    1.5809  -11.1071 H         1 UNK         0.3205 
    126 H126       34.7880    1.7851  -10.5470 H         1 UNK         0.0754 
    127 H127       34.9634    0.1594  -12.4291 H         1 UNK         0.0769 
    128 H128       33.9381    1.5134  -12.8709 H         1 UNK         0.0769 
    129 H129       33.2170   -0.0408  -12.4482 H         1 UNK         0.0769 
    130 H130       32.2126   -0.1845   -9.2631 H         1 UNK         0.2981 
    131 H131       33.7678   -2.5521   -8.7228 H         1 UNK         0.0541 
    132 H132       34.6585   -3.2381   -6.6762 H         1 UNK         0.3459 
    133 H133       34.9706   -2.0898   -5.4005 H         1 UNK         0.3459 
    134 H134       31.2358   -2.4387   -9.0545 H         1 UNK         0.0612 
    135 H135       31.1028   -1.6889   -7.4966 H         1 UNK         0.0612 
    136 H136       29.5273   -3.1978   -6.6541 H         1 UNK         0.0624 
    137 H137       29.7205   -4.8885   -6.2944 H         1 UNK         0.0624 
@<TRIPOS>BOND
     1    1    2 1    
     2    1   72 1    
     3    1   73 1    
     4    1   74 1    
     5    2    3 2    
     6    2    4 am   BACKBONE|DICT|INTERRES
     7    4    5 1    
     8    4   75 1    
     9    5    6 1    
    10    5   35 1    
    11    5   76 1    
    12    6    7 1    
    13    6   77 1    
    14    6   78 1    
    15    7    8 1    
    16    8    9 1    
    17    8   79 1    
    18    8   80 1    
    19    9   10 ar   
    20    9   14 ar   
    21   10   11 ar   
    22   10   81 1    
    23   11   12 ar   
    24   11   71 1    
    25   12   13 ar   
    26   12   82 1    
    27   13   14 ar   
    28   13   15 1    
    29   14   83 1    
    30   15   16 1    
    31   15   84 1    
    32   15   85 1    
    33   16   17 1    
    34   17   18 1    
    35   17   86 1    
    36   17   87 1    
    37   18   19 1    
    38   18   37 1    
    39   18   88 1    
    40   19   20 am   BACKBONE|DICT|INTERRES
    41   19   89 1    
    42   20   21 2    
    43   20   22 1    
    44   22   23 1    
    45   22   24 1    
    46   22   90 1    
    47   23   91 1    
    48   23   92 1    
    49   23   93 1    
    50   24   25 am   BACKBONE|DICT|INTERRES
    51   24   94 1    
    52   25   26 2    
    53   25   27 1    
    54   27   28 1    
    55   27   29 1    
    56   27   95 1    
    57   28   96 1    
    58   28   97 1    
    59   28   98 1    
    60   29   30 am   BACKBONE|DICT|INTERRES
    61   29   99 1    
    62   30   31 2    
    63   30   32 1    
    64   32   33 1    
    65   32   34 1    
    66   32  100 1    
    67   33  101 1    
    68   33  102 1    
    69   33  103 1    
    70   34   35 am   BACKBONE|DICT|INTERRES
    71   34  104 1    
    72   35   36 2    
    73   37   38 2    
    74   37   39 am   BACKBONE|DICT|INTERRES
    75   39   40 1    
    76   39  105 1    
    77   40   41 1    
    78   40   42 1    
    79   40  106 1    
    80   41  107 1    
    81   41  108 1    
    82   41  109 1    
    83   42   43 2    
    84   42   44 am   BACKBONE|DICT|INTERRES
    85   44   45 1    
    86   44  110 1    
    87   45   46 1    
    88   45   47 1    
    89   45  111 1    
    90   46  112 1    
    91   46  113 1    
    92   46  114 1    
    93   47   48 2    
    94   47   49 am   BACKBONE|DICT|INTERRES
    95   49   50 1    
    96   49  115 1    
    97   50   51 1    
    98   50   52 1    
    99   50  116 1    
   100   51  117 1    
   101   51  118 1    
   102   51  119 1    
   103   52   53 2    
   104   52   54 am   BACKBONE|DICT|INTERRES
   105   54   55 1    
   106   54  120 1    
   107   55   56 1    
   108   55   57 1    
   109   55  121 1    
   110   56  122 1    
   111   56  123 1    
   112   56  124 1    
   113   57   58 2    
   114   57   59 am   BACKBONE|DICT|INTERRES
   115   59   60 1    
   116   59  125 1    
   117   60   61 1    
   118   60   62 1    
   119   60  126 1    
   120   61  127 1    
   121   61  128 1    
   122   61  129 1    
   123   62   63 2    
   124   62   64 am   BACKBONE|DICT|INTERRES
   125   64   65 1    
   126   64  130 1    
   127   65   66 1    
   128   65   69 1    
   129   65  131 1    
   130   66   67 am   BACKBONE|DICT|INTERRES
   131   66   68 2    
   132   67  132 1    
   133   67  133 1    
   134   69   70 1    
   135   69  134 1    
   136   69  135 1    
   137   70   71 1    
   138   71  136 1    
   139   71  137 1    
@<TRIPOS>SUBSTRUCTURE
     1 UNK         1 GROUP             0       ****    0 ROOT    
