@<TRIPOS>MOLECULE
3R137
137   139    1
SMALL
USER_CHARGES


@<TRIPOS>ATOM
      1 CA         29.9461   -1.3768    2.0626 C.3       0 UNK        -0.2020 
      2 C          29.0686   -1.3466    0.8204 C.2       0 UNK         0.4855 
      3 O          28.1103   -2.1141    0.7449 O.2       0 UNK        -0.5197 
      4 N          29.3918   -0.4530   -0.1271 N.am      1 UNK        -0.4892 
      5 CA         28.7944   -0.1855   -1.4504 C.3       1 UNK         0.0835 
      6 C6         29.1217   -1.2533   -2.5310 C.3       12 UNK        -0.0855 
      7 S7         28.2184   -2.8346   -2.3965 S.3       12 UNK        -0.2931 
      8 C8         29.5791   -4.0320   -2.2033 C.3       12 UNK         0.0378 
      9 C9         30.4245   -4.1448   -3.4660 C.ar      12 UNK        -0.0802 
     10 C10        31.8089   -3.9675   -3.4116 C.ar      12 UNK        -0.0944 
     11 C11        32.5836   -4.0550   -4.5726 C.ar      12 UNK        -0.0787 
     12 C12        31.9563   -4.3013   -5.7995 C.ar      12 UNK        -0.0862 
     13 C13        30.5701   -4.4860   -5.8721 C.ar      12 UNK        -0.0733 
     14 C14        29.8194   -4.4335   -4.6914 C.ar      12 UNK        -0.0832 
     15 C15        29.9223   -4.7621   -7.2326 C.3       12 UNK         0.0240 
     16 S16        28.1473   -4.3264   -7.3578 S.3       12 UNK        -0.2522 
     17 C17        28.2072   -2.5361   -7.0245 C.3       12 UNK        -0.0967 
     18 CA         27.0912   -1.7431   -7.7437 C.3       5 UNK         0.0660 
     19 N          25.7510   -2.1844   -7.3443 N.am      5 UNK        -0.4015 
     20 C          24.5865   -1.6932   -7.7944 C.2       4 UNK         0.4946 
     21 O          24.4981   -0.8754   -8.7116 O.2       4 UNK        -0.5353 
     22 CA         23.3056   -2.1288   -7.0542 C.3       4 UNK         0.0277 
     23 CB         22.5587   -3.1975   -7.8685 C.3       4 UNK        -0.1981 
     24 N          23.5038   -2.6190   -5.6804 N.am      4 UNK        -0.4209 
     25 C          24.1327   -1.9729   -4.6856 C.2       3 UNK         0.4942 
     26 O          24.6742   -0.8729   -4.8222 O.2       3 UNK        -0.5208 
     27 CA         24.2186   -2.7270   -3.3460 C.3       3 UNK         0.0250 
     28 CB         25.0226   -4.0312   -3.5051 C.3       3 UNK        -0.1990 
     29 N          24.8333   -1.9155   -2.2913 N.am      3 UNK        -0.4232 
     30 C          24.2144   -0.9311   -1.6235 C.2       2 UNK         0.4993 
     31 O          23.0319   -0.6307   -1.7978 O.2       2 UNK        -0.5286 
     32 CA         25.0233   -0.1669   -0.5575 C.3       2 UNK         0.0209 
     33 CB         24.5512   -0.5522    0.8548 C.3       2 UNK        -0.1931 
     34 N          26.4668   -0.3980   -0.6445 N.am      2 UNK        -0.4546 
     35 C          27.3074    0.2411   -1.4636 C.2       1 UNK         0.5154 
     36 O          26.9555    1.1541   -2.2101 O.2       1 UNK        -0.5181 
     37 C          27.3272   -0.2314   -7.5363 C.2       5 UNK         0.5014 
     38 O          28.1916    0.3222   -8.2132 O.2       5 UNK        -0.5248 
     39 N          26.5687    0.4325   -6.6473 N.am      6 UNK        -0.4434 
     40 CA         26.5976    1.8853   -6.4311 C.3       6 UNK         0.0363 
     41 CB         25.5286    2.2679   -5.3970 C.3       6 UNK        -0.1936 
     42 C          26.4067    2.7147   -7.7163 C.2       6 UNK         0.5081 
     43 O          27.0393    3.7612   -7.8568 O.2       6 UNK        -0.5248 
     44 N          25.6012    2.2034   -8.6601 N.am      7 UNK        -0.4718 
     45 CA         25.3956    2.7874   -9.9905 C.3       7 UNK         0.0273 
     46 CB         24.2031    2.0891  -10.6632 C.3       7 UNK        -0.1935 
     47 C          26.6393    2.7233  -10.9007 C.2       7 UNK         0.5018 
     48 O          26.7224    3.4972  -11.8547 O.2       7 UNK        -0.5186 
     49 N          27.5802    1.8223  -10.5891 N.am      8 UNK        -0.4240 
     50 CA         28.8669    1.6487  -11.2645 C.3       8 UNK         0.0235 
     51 CB         29.0344    0.1589  -11.6175 C.3       8 UNK        -0.2000 
     52 C          30.0364    2.1545  -10.3951 C.2       8 UNK         0.4941 
     53 O          31.1838    1.8115  -10.6824 O.2       8 UNK        -0.5273 
     54 N          29.7346    2.9528   -9.3569 N.am      9 UNK        -0.4262 
     55 CA         30.6578    3.5075   -8.3597 C.3       9 UNK         0.0264 
     56 CB         31.6807    4.4659   -9.0081 C.3       9 UNK        -0.1955 
     57 C          31.3109    2.4285   -7.4726 C.2       9 UNK         0.5031 
     58 O          32.5089    2.5057   -7.1866 O.2       9 UNK        -0.5390 
     59 N          30.5007    1.4525   -7.0353 N.am      10 UNK        -0.4204 
     60 CA         30.8459    0.3456   -6.1395 C.3       10 UNK         0.0237 
     61 CB         31.1843    0.8627   -4.7210 C.3       10 UNK        -0.1985 
     62 C          31.9221   -0.5506   -6.7721 C.2       10 UNK         0.4970 
     63 O          31.6471   -1.1892   -7.7886 O.2       10 UNK        -0.4914 
     64 N          33.1163   -0.5757   -6.1741 N.am      11 UNK        -0.4285 
     65 CA         34.2806   -1.3156   -6.6740 C.3       11 UNK         0.1007 
     66 C          34.9599   -0.6715   -7.9188 C.2       11 UNK         0.5703 
     67 N          34.6228    0.5531   -8.3107 N.am      11 UNK        -0.7361 
     68 O          35.8096   -1.3011   -8.5445 O.2       11 UNK        -0.4986 
     69 C69        35.3187   -1.5899   -5.5537 C.3       12 UNK        -0.0947 
     70 S70        34.6090   -2.2414   -4.0025 S.3       12 UNK        -0.2240 
     71 C71        34.0992   -3.9226   -4.4815 C.3       12 UNK         0.0194 
     72 H72        30.3853   -2.3666    2.1853 H         1 UNK         0.0906 
     73 H73        29.3499   -1.1571    2.9478 H         1 UNK         0.0906 
     74 H74        30.7573   -0.6508    2.0111 H         1 UNK         0.0906 
     75 H75        30.1775    0.1501    0.0754 H         1 UNK         0.3140 
     76 H76        29.3220    0.7146   -1.7720 H         1 UNK         0.1085 
     77 H77        30.1945   -1.4495   -2.5275 H         1 UNK         0.0836 
     78 H78        28.9082   -0.8478   -3.5218 H         1 UNK         0.0836 
     79 H79        30.1865   -3.7432   -1.3439 H         1 UNK         0.0731 
     80 H80        29.1576   -5.0107   -1.9710 H         1 UNK         0.0731 
     81 H81        32.2902   -3.7651   -2.4643 H         1 UNK         0.1312 
     82 H82        32.5499   -4.3626   -6.7013 H         1 UNK         0.1406 
     83 H83        28.7509   -4.5938   -4.7157 H         1 UNK         0.1631 
     84 H84        30.0332   -5.8234   -7.4578 H         1 UNK         0.0717 
     85 H85        30.4616   -4.2222   -8.0129 H         1 UNK         0.0717 
     86 H86        28.1615   -2.3786   -5.9447 H         1 UNK         0.0934 
     87 H87        29.1855   -2.1741   -7.3458 H         1 UNK         0.0934 
     88 H88        27.1777   -1.9263   -8.8168 H         1 UNK         0.0739 
     89 H89        25.7183   -2.8674   -6.6030 H         1 UNK         0.3093 
     90 H90        22.6687   -1.2445   -6.9863 H         1 UNK         0.0818 
     91 H91        22.3712   -2.8529   -8.8868 H         1 UNK         0.0819 
     92 H92        23.1299   -4.1241   -7.9388 H         1 UNK         0.0819 
     93 H93        21.5899   -3.4308   -7.4265 H         1 UNK         0.0819 
     94 H94        23.1013   -3.5226   -5.4758 H         1 UNK         0.3041 
     95 H95        23.2029   -2.9809   -3.0348 H         1 UNK         0.0784 
     96 H96        24.4919   -4.7520   -4.1277 H         1 UNK         0.0793 
     97 H97        25.9922   -3.8555   -3.9720 H         1 UNK         0.0793 
     98 H98        25.1976   -4.5126   -2.5425 H         1 UNK         0.0793 
     99 H99        25.8171   -2.0694   -2.1143 H         1 UNK         0.3024 
    100 H100       24.8259    0.8970   -0.7075 H         1 UNK         0.1171 
    101 H101       25.0657    0.0326    1.6175 H         1 UNK         0.0786 
    102 H102       23.4822   -0.3705    0.9749 H         1 UNK         0.0786 
    103 H103       24.7297   -1.6077    1.0644 H         1 UNK         0.0786 
    104 H104       26.8657   -1.1405   -0.0696 H         1 UNK         0.2977 
    105 H105       25.8913   -0.0864   -6.0914 H         1 UNK         0.3127 
    106 H106       27.5779    2.1335   -6.0196 H         1 UNK         0.0770 
    107 H107       24.5247    2.0209   -5.7448 H         1 UNK         0.0814 
    108 H108       25.5507    3.3380   -5.1865 H         1 UNK         0.0814 
    109 H109       25.6874    1.7491   -4.4521 H         1 UNK         0.0814 
    110 H110       25.1511    1.3124   -8.4829 H         1 UNK         0.2983 
    111 H111       25.1465    3.8428   -9.8593 H         1 UNK         0.0947 
    112 H112       24.3912    1.0248  -10.8113 H         1 UNK         0.0806 
    113 H113       23.9961    2.5235  -11.6424 H         1 UNK         0.0806 
    114 H114       23.2959    2.1890  -10.0672 H         1 UNK         0.0806 
    115 H115       27.4566    1.2557   -9.7551 H         1 UNK         0.3000 
    116 H116       28.8882    2.2241  -12.1922 H         1 UNK         0.0850 
    117 H117       29.9455   -0.0094  -12.1930 H         1 UNK         0.0810 
    118 H118       28.2014   -0.2022  -12.2208 H         1 UNK         0.0810 
    119 H119       29.0952   -0.4617  -10.7223 H         1 UNK         0.0810 
    120 H120       28.7577    3.1731   -9.2029 H         1 UNK         0.3040 
    121 H121       30.0400    4.1052   -7.6875 H         1 UNK         0.0766 
    122 H122       32.3874    3.9359   -9.6471 H         1 UNK         0.0812 
    123 H123       32.2632    4.9855   -8.2464 H         1 UNK         0.0812 
    124 H124       31.1858    5.2267   -9.6114 H         1 UNK         0.0812 
    125 H125       29.5816    1.3729   -7.4631 H         1 UNK         0.3205 
    126 H126       29.9542   -0.2736   -6.0480 H         1 UNK         0.0754 
    127 H127       31.4269    0.0390   -4.0486 H         1 UNK         0.0769 
    128 H128       30.3334    1.3890   -4.2882 H         1 UNK         0.0769 
    129 H129       32.0295    1.5515   -4.7169 H         1 UNK         0.0769 
    130 H130       33.2667   -0.0095   -5.3532 H         1 UNK         0.2981 
    131 H131       33.9174   -2.2867   -7.0137 H         1 UNK         0.0541 
    132 H132       35.0698    0.9491   -9.1216 H         1 UNK         0.3459 
    133 H133       33.9168    1.0863   -7.8154 H         1 UNK         0.3459 
    134 H134       35.8469   -0.6686   -5.3010 H         1 UNK         0.0612 
    135 H135       36.0820   -2.2880   -5.9022 H         1 UNK         0.0612 
    136 H136       34.4685   -4.6225   -3.7308 H         1 UNK         0.0624 
    137 H137       34.5751   -4.2087   -5.4205 H         1 UNK         0.0624 
@<TRIPOS>BOND
     1    1    2 1    
     2    1   72 1    
     3    1   73 1    
     4    1   74 1    
     5    2    3 2    
     6    2    4 am   BACKBONE|DICT|INTERRES
     7    4    5 1    
     8    4   75 1    
     9    5    6 1    
    10    5   35 1    
    11    5   76 1    
    12    6    7 1    
    13    6   77 1    
    14    6   78 1    
    15    7    8 1    
    16    8    9 1    
    17    8   79 1    
    18    8   80 1    
    19    9   10 ar   
    20    9   14 ar   
    21   10   11 ar   
    22   10   81 1    
    23   11   12 ar   
    24   11   71 1    
    25   12   13 ar   
    26   12   82 1    
    27   13   14 ar   
    28   13   15 1    
    29   14   83 1    
    30   15   16 1    
    31   15   84 1    
    32   15   85 1    
    33   16   17 1    
    34   17   18 1    
    35   17   86 1    
    36   17   87 1    
    37   18   19 1    
    38   18   37 1    
    39   18   88 1    
    40   19   20 am   BACKBONE|DICT|INTERRES
    41   19   89 1    
    42   20   21 2    
    43   20   22 1    
    44   22   23 1    
    45   22   24 1    
    46   22   90 1    
    47   23   91 1    
    48   23   92 1    
    49   23   93 1    
    50   24   25 am   BACKBONE|DICT|INTERRES
    51   24   94 1    
    52   25   26 2    
    53   25   27 1    
    54   27   28 1    
    55   27   29 1    
    56   27   95 1    
    57   28   96 1    
    58   28   97 1    
    59   28   98 1    
    60   29   30 am   BACKBONE|DICT|INTERRES
    61   29   99 1    
    62   30   31 2    
    63   30   32 1    
    64   32   33 1    
    65   32   34 1    
    66   32  100 1    
    67   33  101 1    
    68   33  102 1    
    69   33  103 1    
    70   34   35 am   BACKBONE|DICT|INTERRES
    71   34  104 1    
    72   35   36 2    
    73   37   38 2    
    74   37   39 am   BACKBONE|DICT|INTERRES
    75   39   40 1    
    76   39  105 1    
    77   40   41 1    
    78   40   42 1    
    79   40  106 1    
    80   41  107 1    
    81   41  108 1    
    82   41  109 1    
    83   42   43 2    
    84   42   44 am   BACKBONE|DICT|INTERRES
    85   44   45 1    
    86   44  110 1    
    87   45   46 1    
    88   45   47 1    
    89   45  111 1    
    90   46  112 1    
    91   46  113 1    
    92   46  114 1    
    93   47   48 2    
    94   47   49 am   BACKBONE|DICT|INTERRES
    95   49   50 1    
    96   49  115 1    
    97   50   51 1    
    98   50   52 1    
    99   50  116 1    
   100   51  117 1    
   101   51  118 1    
   102   51  119 1    
   103   52   53 2    
   104   52   54 am   BACKBONE|DICT|INTERRES
   105   54   55 1    
   106   54  120 1    
   107   55   56 1    
   108   55   57 1    
   109   55  121 1    
   110   56  122 1    
   111   56  123 1    
   112   56  124 1    
   113   57   58 2    
   114   57   59 am   BACKBONE|DICT|INTERRES
   115   59   60 1    
   116   59  125 1    
   117   60   61 1    
   118   60   62 1    
   119   60  126 1    
   120   61  127 1    
   121   61  128 1    
   122   61  129 1    
   123   62   63 2    
   124   62   64 am   BACKBONE|DICT|INTERRES
   125   64   65 1    
   126   64  130 1    
   127   65   66 1    
   128   65   69 1    
   129   65  131 1    
   130   66   67 am   BACKBONE|DICT|INTERRES
   131   66   68 2    
   132   67  132 1    
   133   67  133 1    
   134   69   70 1    
   135   69  134 1    
   136   69  135 1    
   137   70   71 1    
   138   71  136 1    
   139   71  137 1    
@<TRIPOS>SUBSTRUCTURE
     1 UNK         1 GROUP             0       ****    0 ROOT    
