@<TRIPOS>MOLECULE
3R137
137   139    1
SMALL
USER_CHARGES


@<TRIPOS>ATOM
      1 CA         25.6935   -3.3206    3.9217 C.3       0 UNK        -0.2020 
      2 C          26.9470   -2.8833    3.1785 C.2       0 UNK         0.4855 
      3 O          27.8729   -2.3555    3.7952 O.2       0 UNK        -0.5197 
      4 N          26.9848   -3.0956    1.8602 N.am      1 UNK        -0.4892 
      5 CA         28.0859   -2.7286    0.9747 C.3       1 UNK         0.0835 
      6 C6         29.2438   -3.7700    1.0378 C.3       12 UNK        -0.0855 
      7 S7         30.5500   -3.5785   -0.2356 S.3       12 UNK        -0.2931 
      8 C8         30.0744   -4.8848   -1.4264 C.3       12 UNK         0.0378 
      9 C9         30.3272   -4.5350   -2.8941 C.ar      12 UNK        -0.0802 
     10 C10        31.4678   -3.8273   -3.2998 C.ar      12 UNK        -0.0944 
     11 C11        31.7058   -3.5694   -4.6546 C.ar      12 UNK        -0.0787 
     12 C12        30.8045   -4.0516   -5.6070 C.ar      12 UNK        -0.0862 
     13 C13        29.6455   -4.7279   -5.2221 C.ar      12 UNK        -0.0733 
     14 C14        29.4158   -4.9724   -3.8652 C.ar      12 UNK        -0.0832 
     15 C15        28.6524   -5.1876   -6.2853 C.3       12 UNK         0.0240 
     16 S16        27.2560   -4.0293   -6.5036 S.3       12 UNK        -0.2522 
     17 C17        28.1086   -2.4187   -6.5656 C.3       12 UNK        -0.0967 
     18 CA         27.3402   -1.2909   -7.2905 C.3       5 UNK         0.0660 
     19 N          25.9653   -1.1065   -6.8124 N.am      5 UNK        -0.4015 
     20 C          25.0542   -0.3250   -7.4158 C.2       4 UNK         0.4946 
     21 O          25.2851    0.3092   -8.4483 O.2       4 UNK        -0.5353 
     22 CA         23.6799   -0.1683   -6.7373 C.3       4 UNK         0.0277 
     23 CB         22.6873   -1.1952   -7.3036 C.3       4 UNK        -0.1981 
     24 N          23.7166   -0.2780   -5.2745 N.am      4 UNK        -0.4209 
     25 C          24.4216    0.5203   -4.4596 C.2       3 UNK         0.4942 
     26 O          25.0949    1.4705   -4.8580 O.2       3 UNK        -0.5208 
     27 CA         24.4581    0.1632   -2.9586 C.3       3 UNK         0.0250 
     28 CB         23.3816   -0.8575   -2.5234 C.3       3 UNK        -0.1990 
     29 N          25.7960   -0.3014   -2.5637 N.am      3 UNK        -0.4232 
     30 C          26.4881   -1.2921   -3.1471 C.2       2 UNK         0.4993 
     31 O          26.0475   -1.9965   -4.0551 O.2       2 UNK        -0.5286 
     32 CA         27.9232   -1.5237   -2.6571 C.3       2 UNK         0.0209 
     33 CB         28.8731   -0.4249   -3.1641 C.3       2 UNK        -0.1931 
     34 N          28.0708   -1.6423   -1.2081 N.am      2 UNK        -0.4546 
     35 C          27.4916   -2.5704   -0.4353 C.2       1 UNK         0.5154 
     36 O          26.5826   -3.3220   -0.7988 O.2       1 UNK        -0.5181 
     37 C          28.1716    0.0063   -7.2280 C.2       5 UNK         0.5014 
     38 O          29.1690    0.1046   -7.9447 O.2       5 UNK        -0.5248 
     39 N          27.7609    0.9897   -6.4091 N.am      6 UNK        -0.4434 
     40 CA         28.4153    2.2964   -6.3317 C.3       6 UNK         0.0363 
     41 CB         27.8573    3.1072   -5.1536 C.3       6 UNK        -0.1936 
     42 C          28.3106    3.0893   -7.6445 C.2       6 UNK         0.5081 
     43 O          29.2183    3.8614   -7.9507 O.2       6 UNK        -0.5248 
     44 N          27.2343    2.8469   -8.4048 N.am      7 UNK        -0.4718 
     45 CA         27.0506    3.3393   -9.7650 C.3       7 UNK         0.0273 
     46 CB         25.5757    3.7208   -9.9762 C.3       7 UNK        -0.1935 
     47 C          27.4935    2.2826  -10.7873 C.2       7 UNK         0.5018 
     48 O          28.2823    2.6031  -11.6757 O.2       7 UNK        -0.5186 
     49 N          26.9784    1.0496  -10.6550 N.am      8 UNK        -0.4240 
     50 CA         27.1174   -0.0113  -11.6593 C.3       8 UNK         0.0235 
     51 CB         26.1167   -1.1404  -11.3631 C.3       8 UNK        -0.2000 
     52 C          28.5403   -0.5733  -11.8210 C.2       8 UNK         0.4941 
     53 O          28.9137   -0.9197  -12.9425 O.2       8 UNK        -0.5273 
     54 N          29.3032   -0.6573  -10.7232 N.am      9 UNK        -0.4262 
     55 CA         30.6874   -1.1454  -10.7029 C.3       9 UNK         0.0264 
     56 CB         30.7857   -2.3224   -9.7158 C.3       9 UNK        -0.1955 
     57 C          31.6871   -0.0354  -10.3298 C.2       9 UNK         0.5031 
     58 O          32.8840   -0.3156  -10.2523 O.2       9 UNK        -0.5390 
     59 N          31.1891    1.1906  -10.1009 N.am      10 UNK        -0.4204 
     60 CA         31.9175    2.3856   -9.6585 C.3       10 UNK         0.0237 
     61 CB         32.9148    2.8565  -10.7394 C.3       10 UNK        -0.1985 
     62 C          32.5660    2.2347   -8.2651 C.2       10 UNK         0.4970 
     63 O          33.5975    2.8572   -8.0057 O.2       10 UNK        -0.4914 
     64 N          31.9527    1.4279   -7.3874 N.am      11 UNK        -0.4285 
     65 CA         32.4223    1.1659   -6.0136 C.3       11 UNK         0.1007 
     66 C          32.1802    2.3243   -4.9976 C.2       11 UNK         0.5703 
     67 N          31.6083    3.4582   -5.3866 N.am      11 UNK        -0.7361 
     68 O          32.5381    2.1999   -3.8291 O.2       11 UNK        -0.4986 
     69 C69        31.8968   -0.1992   -5.4901 C.3       12 UNK        -0.0947 
     70 S70        32.6410   -1.5864   -6.4099 S.3       12 UNK        -0.2240 
     71 C71        32.9578   -2.8126   -5.0913 C.3       12 UNK         0.0194 
     72 H72        24.9606   -3.7735    3.2542 H         1 UNK         0.0906 
     73 H73        25.9483   -4.0502    4.6899 H         1 UNK         0.0906 
     74 H74        25.2265   -2.4639    4.4068 H         1 UNK         0.0906 
     75 H75        26.1939   -3.5022    1.3731 H         1 UNK         0.3140 
     76 H76        28.4713   -1.7545    1.2853 H         1 UNK         0.1085 
     77 H77        29.7274   -3.7056    2.0137 H         1 UNK         0.0836 
     78 H78        28.8413   -4.7832    0.9861 H         1 UNK         0.0836 
     79 H79        30.6211   -5.7966   -1.1827 H         1 UNK         0.0731 
     80 H80        29.0169   -5.1183   -1.2942 H         1 UNK         0.0731 
     81 H81        32.1805   -3.4882   -2.5608 H         1 UNK         0.1312 
     82 H82        30.9964   -3.8808   -6.6572 H         1 UNK         0.1406 
     83 H83        28.5252   -5.5106   -3.5690 H         1 UNK         0.1631 
     84 H84        28.2586   -6.1703   -6.0223 H         1 UNK         0.0717 
     85 H85        29.1576   -5.3118   -7.2445 H         1 UNK         0.0717 
     86 H86        29.0639   -2.5665   -7.0681 H         1 UNK         0.0934 
     87 H87        28.3482   -2.1364   -5.5415 H         1 UNK         0.0934 
     88 H88        27.2760   -1.5701   -8.3423 H         1 UNK         0.0739 
     89 H89        25.7369   -1.5683   -5.9348 H         1 UNK         0.3093 
     90 H90        23.3141    0.8315   -6.9805 H         1 UNK         0.0818 
     91 H91        21.6828   -1.0364   -6.9108 H         1 UNK         0.0819 
     92 H92        22.6238   -1.1175   -8.3902 H         1 UNK         0.0819 
     93 H93        22.9845   -2.2178   -7.0672 H         1 UNK         0.0819 
     94 H94        23.2290   -1.0612   -4.8640 H         1 UNK         0.3041 
     95 H95        24.2732    1.0932   -2.4188 H         1 UNK         0.0784 
     96 H96        22.3803   -0.5132   -2.7859 H         1 UNK         0.0793 
     97 H97        23.5291   -1.8386   -2.9764 H         1 UNK         0.0793 
     98 H98        23.3958   -0.9962   -1.4422 H         1 UNK         0.0793 
     99 H99        26.2536    0.2315   -1.8375 H         1 UNK         0.3024 
    100 H100       28.2479   -2.4730   -3.0873 H         1 UNK         0.1171 
    101 H101       28.6772    0.5359   -2.6871 H         1 UNK         0.0786 
    102 H102       28.7739   -0.2771   -4.2367 H         1 UNK         0.0786 
    103 H103       29.9142   -0.6880   -2.9742 H         1 UNK         0.0786 
    104 H104       28.8133   -1.0921   -0.8008 H         1 UNK         0.2977 
    105 H105       26.9061    0.8790   -5.8745 H         1 UNK         0.3127 
    106 H106       29.4693    2.1068   -6.1420 H         1 UNK         0.0770 
    107 H107       26.8188    3.3961   -5.3175 H         1 UNK         0.0814 
    108 H108       28.4292    4.0253   -5.0127 H         1 UNK         0.0814 
    109 H109       27.9090    2.5464   -4.2206 H         1 UNK         0.0814 
    110 H110       26.5551    2.1737   -8.0731 H         1 UNK         0.2983 
    111 H111       27.6558    4.2351   -9.9240 H         1 UNK         0.0947 
    112 H112       25.4067    4.0778  -10.9931 H         1 UNK         0.0806 
    113 H113       25.2757    4.5207   -9.2991 H         1 UNK         0.0806 
    114 H114       24.9056    2.8760   -9.8104 H         1 UNK         0.0806 
    115 H115       26.3389    0.8606   -9.8853 H         1 UNK         0.3000 
    116 H116       26.8409    0.4243  -12.6222 H         1 UNK         0.0850 
    117 H117       26.1553   -1.9081  -12.1371 H         1 UNK         0.0810 
    118 H118       25.0935   -0.7652  -11.3311 H         1 UNK         0.0810 
    119 H119       26.3212   -1.6294  -10.4119 H         1 UNK         0.0810 
    120 H120       28.9372   -0.3487   -9.8276 H         1 UNK         0.3040 
    121 H121       30.9800   -1.5100  -11.6895 H         1 UNK         0.0766 
    122 H122       31.7748   -2.7808   -9.7523 H         1 UNK         0.0812 
    123 H123       30.6222   -1.9976   -8.6894 H         1 UNK         0.0812 
    124 H124       30.0580   -3.1006   -9.9455 H         1 UNK         0.0812 
    125 H125       30.1920    1.3083  -10.2104 H         1 UNK         0.3205 
    126 H126       31.1674    3.1695   -9.5551 H         1 UNK         0.0754 
    127 H127       33.3401    3.8278  -10.4835 H         1 UNK         0.0769 
    128 H128       32.4272    2.9644  -11.7083 H         1 UNK         0.0769 
    129 H129       33.7454    2.1598  -10.8567 H         1 UNK         0.0769 
    130 H130       31.1079    0.9446   -7.6703 H         1 UNK         0.2981 
    131 H131       33.5101    1.0854   -6.0612 H         1 UNK         0.0541 
    132 H132       31.3299    3.5956   -6.3455 H         1 UNK         0.3459 
    133 H133       31.4796    4.1961   -4.7131 H         1 UNK         0.3459 
    134 H134       30.8119   -0.2586   -5.5791 H         1 UNK         0.0612 
    135 H135       32.1258   -0.3291   -4.4312 H         1 UNK         0.0612 
    136 H136       33.6805   -3.5385   -5.4654 H         1 UNK         0.0624 
    137 H137       33.4318   -2.3158   -4.2435 H         1 UNK         0.0624 
@<TRIPOS>BOND
     1    1    2 1    
     2    1   72 1    
     3    1   73 1    
     4    1   74 1    
     5    2    3 2    
     6    2    4 am   BACKBONE|DICT|INTERRES
     7    4    5 1    
     8    4   75 1    
     9    5    6 1    
    10    5   35 1    
    11    5   76 1    
    12    6    7 1    
    13    6   77 1    
    14    6   78 1    
    15    7    8 1    
    16    8    9 1    
    17    8   79 1    
    18    8   80 1    
    19    9   10 ar   
    20    9   14 ar   
    21   10   11 ar   
    22   10   81 1    
    23   11   12 ar   
    24   11   71 1    
    25   12   13 ar   
    26   12   82 1    
    27   13   14 ar   
    28   13   15 1    
    29   14   83 1    
    30   15   16 1    
    31   15   84 1    
    32   15   85 1    
    33   16   17 1    
    34   17   18 1    
    35   17   86 1    
    36   17   87 1    
    37   18   19 1    
    38   18   37 1    
    39   18   88 1    
    40   19   20 am   BACKBONE|DICT|INTERRES
    41   19   89 1    
    42   20   21 2    
    43   20   22 1    
    44   22   23 1    
    45   22   24 1    
    46   22   90 1    
    47   23   91 1    
    48   23   92 1    
    49   23   93 1    
    50   24   25 am   BACKBONE|DICT|INTERRES
    51   24   94 1    
    52   25   26 2    
    53   25   27 1    
    54   27   28 1    
    55   27   29 1    
    56   27   95 1    
    57   28   96 1    
    58   28   97 1    
    59   28   98 1    
    60   29   30 am   BACKBONE|DICT|INTERRES
    61   29   99 1    
    62   30   31 2    
    63   30   32 1    
    64   32   33 1    
    65   32   34 1    
    66   32  100 1    
    67   33  101 1    
    68   33  102 1    
    69   33  103 1    
    70   34   35 am   BACKBONE|DICT|INTERRES
    71   34  104 1    
    72   35   36 2    
    73   37   38 2    
    74   37   39 am   BACKBONE|DICT|INTERRES
    75   39   40 1    
    76   39  105 1    
    77   40   41 1    
    78   40   42 1    
    79   40  106 1    
    80   41  107 1    
    81   41  108 1    
    82   41  109 1    
    83   42   43 2    
    84   42   44 am   BACKBONE|DICT|INTERRES
    85   44   45 1    
    86   44  110 1    
    87   45   46 1    
    88   45   47 1    
    89   45  111 1    
    90   46  112 1    
    91   46  113 1    
    92   46  114 1    
    93   47   48 2    
    94   47   49 am   BACKBONE|DICT|INTERRES
    95   49   50 1    
    96   49  115 1    
    97   50   51 1    
    98   50   52 1    
    99   50  116 1    
   100   51  117 1    
   101   51  118 1    
   102   51  119 1    
   103   52   53 2    
   104   52   54 am   BACKBONE|DICT|INTERRES
   105   54   55 1    
   106   54  120 1    
   107   55   56 1    
   108   55   57 1    
   109   55  121 1    
   110   56  122 1    
   111   56  123 1    
   112   56  124 1    
   113   57   58 2    
   114   57   59 am   BACKBONE|DICT|INTERRES
   115   59   60 1    
   116   59  125 1    
   117   60   61 1    
   118   60   62 1    
   119   60  126 1    
   120   61  127 1    
   121   61  128 1    
   122   61  129 1    
   123   62   63 2    
   124   62   64 am   BACKBONE|DICT|INTERRES
   125   64   65 1    
   126   64  130 1    
   127   65   66 1    
   128   65   69 1    
   129   65  131 1    
   130   66   67 am   BACKBONE|DICT|INTERRES
   131   66   68 2    
   132   67  132 1    
   133   67  133 1    
   134   69   70 1    
   135   69  134 1    
   136   69  135 1    
   137   70   71 1    
   138   71  136 1    
   139   71  137 1    
@<TRIPOS>SUBSTRUCTURE
     1 UNK         1 GROUP             0       ****    0 ROOT    
