@<TRIPOS>MOLECULE
3R137
137   139    1
SMALL
USER_CHARGES


@<TRIPOS>ATOM
      1 CA         22.9764   -7.1608   -4.0725 C.3       0 UNK        -0.2020 
      2 C          23.7051   -6.2670   -3.0805 C.2       0 UNK         0.4855 
      3 O          23.6107   -6.4873   -1.8729 O.2       0 UNK        -0.5197 
      4 N          24.4291   -5.2563   -3.5793 N.am      1 UNK        -0.4892 
      5 CA         25.2236   -4.3139   -2.7748 C.3       1 UNK         0.0835 
      6 C6         26.3118   -3.5950   -3.6179 C.3       12 UNK        -0.0855 
      7 S7         27.3506   -4.7610   -4.5634 S.3       12 UNK        -0.2931 
      8 C8         28.8208   -4.9374   -3.4969 C.3       12 UNK         0.0378 
      9 C9         29.9385   -3.9517   -3.8278 C.ar      12 UNK        -0.0802 
     10 C10        30.3569   -3.7681   -5.1508 C.ar      12 UNK        -0.0944 
     11 C11        31.4295   -2.9246   -5.4511 C.ar      12 UNK        -0.0787 
     12 C12        32.0953   -2.2636   -4.4153 C.ar      12 UNK        -0.0862 
     13 C13        31.6860   -2.4298   -3.0887 C.ar      12 UNK        -0.0733 
     14 C14        30.6094   -3.2773   -2.8012 C.ar      12 UNK        -0.0832 
     15 C15        32.4159   -1.7010   -1.9677 C.3       12 UNK         0.0240 
     16 S16        31.3681   -0.4518   -1.1547 S.3       12 UNK        -0.2522 
     17 C17        31.0954    0.7647   -2.4920 C.3       12 UNK        -0.0967 
     18 CA         29.8217    0.4628   -3.3282 C.3       5 UNK         0.0660 
     19 N          28.6163    0.2498   -2.5232 N.am      5 UNK        -0.4015 
     20 C          27.9325    1.1654   -1.8266 C.2       4 UNK         0.4946 
     21 O          28.2636    2.3463   -1.7015 O.2       4 UNK        -0.5353 
     22 CA         26.6188    0.6644   -1.2029 C.3       4 UNK         0.0277 
     23 CB         26.3522    1.3222    0.1628 C.3       4 UNK        -0.1981 
     24 N          25.4509    0.8711   -2.0661 N.am      4 UNK        -0.4209 
     25 C          25.2972    0.4729   -3.3377 C.2       3 UNK         0.4942 
     26 O          26.1696   -0.0793   -4.0122 O.2       3 UNK        -0.5208 
     27 CA         23.8826    0.6256   -3.9169 C.3       3 UNK         0.0250 
     28 CB         23.8820    0.7109   -5.4541 C.3       3 UNK        -0.1990 
     29 N          23.1151   -0.5457   -3.5044 N.am      3 UNK        -0.4232 
     30 C          22.5426   -0.7007   -2.3026 C.2       2 UNK         0.4993 
     31 O          22.3922    0.2121   -1.4895 O.2       2 UNK        -0.5286 
     32 CA         22.1343   -2.1342   -1.9252 C.3       2 UNK         0.0209 
     33 CB         20.7176   -2.4517   -2.4302 C.3       2 UNK        -0.1931 
     34 N          23.0776   -3.1336   -2.4416 N.am      2 UNK        -0.4546 
     35 C          24.3502   -3.2769   -2.0337 C.2       1 UNK         0.5154 
     36 O          24.8487   -2.6162   -1.1218 O.2       1 UNK        -0.5181 
     37 C          29.5828    1.4677   -4.4765 C.2       5 UNK         0.5014 
     38 O          30.4599    2.2745   -4.7881 O.2       5 UNK        -0.5248 
     39 N          28.3959    1.3893   -5.0913 N.am      6 UNK        -0.4434 
     40 CA         27.9715    2.2101   -6.2242 C.3       6 UNK         0.0363 
     41 CB         27.1918    3.4327   -5.7040 C.3       6 UNK        -0.1936 
     42 C          27.1638    1.3768   -7.2343 C.2       6 UNK         0.5081 
     43 O          26.3662    1.9380   -7.9859 O.2       6 UNK        -0.5248 
     44 N          27.3707    0.0510   -7.2369 N.am      7 UNK        -0.4718 
     45 CA         26.6908   -0.9040   -8.1193 C.3       7 UNK         0.0273 
     46 CB         26.9550   -2.3291   -7.6084 C.3       7 UNK        -0.1935 
     47 C          27.0966   -0.7738   -9.5991 C.2       7 UNK         0.5018 
     48 O          26.3170   -1.1471  -10.4767 O.2       7 UNK        -0.5186 
     49 N          28.2952   -0.2388   -9.8453 N.am      8 UNK        -0.4240 
     50 CA         28.8556    0.0861  -11.1493 C.3       8 UNK         0.0235 
     51 CB         29.5298   -1.1613  -11.7501 C.3       8 UNK        -0.2000 
     52 C          29.8714    1.2138  -10.9435 C.2       8 UNK         0.4941 
     53 O          30.3298    1.4217   -9.8168 O.2       8 UNK        -0.5273 
     54 N          30.2571    1.8886  -12.0352 N.am      9 UNK        -0.4262 
     55 CA         31.2800    2.9454  -12.0379 C.3       9 UNK         0.0264 
     56 CB         31.3699    3.5688  -13.4401 C.3       9 UNK        -0.1955 
     57 C          32.6678    2.4638  -11.5707 C.2       9 UNK         0.5031 
     58 O          33.4231    3.2484  -10.9952 O.2       9 UNK        -0.5390 
     59 N          32.9552    1.1722  -11.7859 N.am      10 UNK        -0.4204 
     60 CA         34.1505    0.4735  -11.3119 C.3       10 UNK         0.0237 
     61 CB         34.2085   -0.9146  -11.9713 C.3       10 UNK        -0.1985 
     62 C          34.2388    0.3401   -9.7787 C.2       10 UNK         0.4970 
     63 O          35.3390    0.1140   -9.2731 O.2       10 UNK        -0.4914 
     64 N          33.1097    0.4715   -9.0662 N.am      11 UNK        -0.4285 
     65 CA         33.0556    0.4253   -7.5968 C.3       11 UNK         0.1007 
     66 C          33.5936    1.7076   -6.8977 C.2       11 UNK         0.5703 
     67 N          33.8024    2.8155   -7.6018 N.am      11 UNK        -0.7361 
     68 O          33.8523    1.6855   -5.6970 O.2       11 UNK        -0.4986 
     69 C69        31.6443    0.0558   -7.0681 C.3       12 UNK        -0.0947 
     70 S70        30.9585   -1.4769   -7.7811 S.3       12 UNK        -0.2240 
     71 C71        31.8900   -2.7638   -6.8924 C.3       12 UNK         0.0194 
     72 H72        23.3135   -8.1915   -3.9658 H         1 UNK         0.0906 
     73 H73        21.9032   -7.1323   -3.8858 H         1 UNK         0.0906 
     74 H74        23.1499   -6.8531   -5.1035 H         1 UNK         0.0906 
     75 H75        24.5051   -5.1424   -4.5807 H         1 UNK         0.3140 
     76 H76        25.7352   -4.8907   -2.0008 H         1 UNK         0.1085 
     77 H77        26.9517   -2.9781   -2.9837 H         1 UNK         0.0836 
     78 H78        25.8493   -2.9082   -4.3292 H         1 UNK         0.0836 
     79 H79        28.5218   -4.8593   -2.4505 H         1 UNK         0.0731 
     80 H80        29.2145   -5.9465   -3.6246 H         1 UNK         0.0731 
     81 H81        29.8552   -4.2958   -5.9505 H         1 UNK         0.1312 
     82 H82        32.9328   -1.6183   -4.6432 H         1 UNK         0.1406 
     83 H83        30.3049   -3.4171   -1.7725 H         1 UNK         0.1631 
     84 H84        33.3244   -1.2217   -2.3359 H         1 UNK         0.0717 
     85 H85        32.7368   -2.4290   -1.2213 H         1 UNK         0.0717 
     86 H86        31.0208    1.7543   -2.0379 H         1 UNK         0.0934 
     87 H87        31.9788    0.7926   -3.1334 H         1 UNK         0.0934 
     88 H88        29.9833   -0.4844   -3.8401 H         1 UNK         0.0739 
     89 H89        28.2138   -0.6731   -2.5975 H         1 UNK         0.3093 
     90 H90        26.7098   -0.4111   -1.0356 H         1 UNK         0.0818 
     91 H91        25.4859    0.8787    0.6544 H         1 UNK         0.0819 
     92 H92        27.2044    1.1920    0.8313 H         1 UNK         0.0819 
     93 H93        26.1732    2.3940    0.0680 H         1 UNK         0.0819 
     94 H94        24.6394    1.2650   -1.6096 H         1 UNK         0.3041 
     95 H95        23.4265    1.5355   -3.5203 H         1 UNK         0.0784 
     96 H96        22.8687    0.8067   -5.8442 H         1 UNK         0.0793 
     97 H97        24.4417    1.5819   -5.7951 H         1 UNK         0.0793 
     98 H98        24.3347   -0.1683   -5.9144 H         1 UNK         0.0793 
     99 H99        23.2088   -1.3643   -4.0872 H         1 UNK         0.3024 
    100 H100       22.1361   -2.1988   -0.8345 H         1 UNK         0.1171 
    101 H101       20.6568   -2.4194   -3.5188 H         1 UNK         0.0786 
    102 H102       19.9958   -1.7316   -2.0419 H         1 UNK         0.0786 
    103 H103       20.3932   -3.4403   -2.1045 H         1 UNK         0.0786 
    104 H104       22.7496   -3.7419   -3.1778 H         1 UNK         0.2977 
    105 H105       27.6960    0.7381   -4.7354 H         1 UNK         0.3127 
    106 H106       28.8496    2.5658   -6.7677 H         1 UNK         0.0770 
    107 H107       26.2895    3.1348   -5.1696 H         1 UNK         0.0814 
    108 H108       26.8901    4.0877   -6.5222 H         1 UNK         0.0814 
    109 H109       27.8007    4.0279   -5.0234 H         1 UNK         0.0814 
    110 H110       28.0537   -0.3314   -6.5994 H         1 UNK         0.2983 
    111 H111       25.6175   -0.7111   -8.0609 H         1 UNK         0.0947 
    112 H112       26.4403   -3.0678   -8.2241 H         1 UNK         0.0806 
    113 H113       26.5964   -2.4541   -6.5874 H         1 UNK         0.0806 
    114 H114       28.0174   -2.5756   -7.6226 H         1 UNK         0.0806 
    115 H115       28.8642    0.0758   -9.0682 H         1 UNK         0.3000 
    116 H116       28.0618    0.4428  -11.8092 H         1 UNK         0.0850 
    117 H117       30.3382   -1.5260  -11.1144 H         1 UNK         0.0810 
    118 H118       28.8152   -1.9748  -11.8771 H         1 UNK         0.0810 
    119 H119       29.9527   -0.9498  -12.7327 H         1 UNK         0.0810 
    120 H120       29.8356    1.6621  -12.9253 H         1 UNK         0.3040 
    121 H121       30.9551    3.7193  -11.3391 H         1 UNK         0.0766 
    122 H122       30.4161    3.9993  -13.7458 H         1 UNK         0.0812 
    123 H123       31.6654    2.8355  -14.1916 H         1 UNK         0.0812 
    124 H124       32.1071    4.3728  -13.4624 H         1 UNK         0.0812 
    125 H125       32.2703    0.6144  -12.2737 H         1 UNK         0.3205 
    126 H126       35.0216    1.0462  -11.6372 H         1 UNK         0.0754 
    127 H127       35.1075   -1.4539  -11.6691 H         1 UNK         0.0769 
    128 H128       34.2307   -0.8383  -13.0587 H         1 UNK         0.0769 
    129 H129       33.3513   -1.5297  -11.6933 H         1 UNK         0.0769 
    130 H130       32.2339    0.6882   -9.5283 H         1 UNK         0.2981 
    131 H131       33.7291   -0.3718   -7.2789 H         1 UNK         0.0541 
    132 H132       34.1596    3.6340   -7.1357 H         1 UNK         0.3459 
    133 H133       33.6092    2.8418   -8.5926 H         1 UNK         0.3459 
    134 H134       30.9424    0.8624   -7.2847 H         1 UNK         0.0612 
    135 H135       31.6562   -0.0413   -5.9833 H         1 UNK         0.0612 
    136 H136       31.7589   -3.7084   -7.4221 H         1 UNK         0.0624 
    137 H137       32.9576   -2.5463   -6.9330 H         1 UNK         0.0624 
@<TRIPOS>BOND
     1    1    2 1    
     2    1   72 1    
     3    1   73 1    
     4    1   74 1    
     5    2    3 2    
     6    2    4 am   BACKBONE|DICT|INTERRES
     7    4    5 1    
     8    4   75 1    
     9    5    6 1    
    10    5   35 1    
    11    5   76 1    
    12    6    7 1    
    13    6   77 1    
    14    6   78 1    
    15    7    8 1    
    16    8    9 1    
    17    8   79 1    
    18    8   80 1    
    19    9   10 ar   
    20    9   14 ar   
    21   10   11 ar   
    22   10   81 1    
    23   11   12 ar   
    24   11   71 1    
    25   12   13 ar   
    26   12   82 1    
    27   13   14 ar   
    28   13   15 1    
    29   14   83 1    
    30   15   16 1    
    31   15   84 1    
    32   15   85 1    
    33   16   17 1    
    34   17   18 1    
    35   17   86 1    
    36   17   87 1    
    37   18   19 1    
    38   18   37 1    
    39   18   88 1    
    40   19   20 am   BACKBONE|DICT|INTERRES
    41   19   89 1    
    42   20   21 2    
    43   20   22 1    
    44   22   23 1    
    45   22   24 1    
    46   22   90 1    
    47   23   91 1    
    48   23   92 1    
    49   23   93 1    
    50   24   25 am   BACKBONE|DICT|INTERRES
    51   24   94 1    
    52   25   26 2    
    53   25   27 1    
    54   27   28 1    
    55   27   29 1    
    56   27   95 1    
    57   28   96 1    
    58   28   97 1    
    59   28   98 1    
    60   29   30 am   BACKBONE|DICT|INTERRES
    61   29   99 1    
    62   30   31 2    
    63   30   32 1    
    64   32   33 1    
    65   32   34 1    
    66   32  100 1    
    67   33  101 1    
    68   33  102 1    
    69   33  103 1    
    70   34   35 am   BACKBONE|DICT|INTERRES
    71   34  104 1    
    72   35   36 2    
    73   37   38 2    
    74   37   39 am   BACKBONE|DICT|INTERRES
    75   39   40 1    
    76   39  105 1    
    77   40   41 1    
    78   40   42 1    
    79   40  106 1    
    80   41  107 1    
    81   41  108 1    
    82   41  109 1    
    83   42   43 2    
    84   42   44 am   BACKBONE|DICT|INTERRES
    85   44   45 1    
    86   44  110 1    
    87   45   46 1    
    88   45   47 1    
    89   45  111 1    
    90   46  112 1    
    91   46  113 1    
    92   46  114 1    
    93   47   48 2    
    94   47   49 am   BACKBONE|DICT|INTERRES
    95   49   50 1    
    96   49  115 1    
    97   50   51 1    
    98   50   52 1    
    99   50  116 1    
   100   51  117 1    
   101   51  118 1    
   102   51  119 1    
   103   52   53 2    
   104   52   54 am   BACKBONE|DICT|INTERRES
   105   54   55 1    
   106   54  120 1    
   107   55   56 1    
   108   55   57 1    
   109   55  121 1    
   110   56  122 1    
   111   56  123 1    
   112   56  124 1    
   113   57   58 2    
   114   57   59 am   BACKBONE|DICT|INTERRES
   115   59   60 1    
   116   59  125 1    
   117   60   61 1    
   118   60   62 1    
   119   60  126 1    
   120   61  127 1    
   121   61  128 1    
   122   61  129 1    
   123   62   63 2    
   124   62   64 am   BACKBONE|DICT|INTERRES
   125   64   65 1    
   126   64  130 1    
   127   65   66 1    
   128   65   69 1    
   129   65  131 1    
   130   66   67 am   BACKBONE|DICT|INTERRES
   131   66   68 2    
   132   67  132 1    
   133   67  133 1    
   134   69   70 1    
   135   69  134 1    
   136   69  135 1    
   137   70   71 1    
   138   71  136 1    
   139   71  137 1    
@<TRIPOS>SUBSTRUCTURE
     1 UNK         1 GROUP             0       ****    0 ROOT    
