@<TRIPOS>MOLECULE
3R137
137   139    1
SMALL
USER_CHARGES


@<TRIPOS>ATOM
      1 CA         23.2999   -0.2617   -7.8878 C.3       0 UNK        -0.2020 
      2 C          24.5112   -0.8610   -7.1902 C.2       0 UNK         0.4855 
      3 O          25.2947   -0.1131   -6.6075 O.2       0 UNK        -0.5197 
      4 N          24.6625   -2.1904   -7.2650 N.am      1 UNK        -0.4892 
      5 CA         25.7166   -3.0164   -6.6604 C.3       1 UNK         0.0835 
      6 C6         27.1579   -2.5346   -6.9800 C.3       12 UNK        -0.0855 
      7 S7         28.3528   -3.9077   -7.1282 S.3       12 UNK        -0.2931 
      8 C8         28.9906   -4.1178   -5.4279 C.3       12 UNK         0.0378 
      9 C9         29.5133   -2.8391   -4.7801 C.ar      12 UNK        -0.0802 
     10 C10        30.3591   -1.9694   -5.4766 C.ar      12 UNK        -0.0944 
     11 C11        30.8378   -0.8043   -4.8709 C.ar      12 UNK        -0.0787 
     12 C12        30.4789   -0.5162   -3.5509 C.ar      12 UNK        -0.0862 
     13 C13        29.6536   -1.3885   -2.8345 C.ar      12 UNK        -0.0733 
     14 C14        29.1698   -2.5431   -3.4569 C.ar      12 UNK        -0.0832 
     15 C15        29.3104   -1.1047   -1.3782 C.3       12 UNK         0.0240 
     16 S16        27.5596   -0.6631   -1.1496 S.3       12 UNK        -0.2522 
     17 C17        27.4673    0.9444   -2.0121 C.3       12 UNK        -0.0967 
     18 CA         26.7301    0.8385   -3.3747 C.3       5 UNK         0.0660 
     19 N          25.3748    0.2851   -3.2456 N.am      5 UNK        -0.4015 
     20 C          24.3077    0.8717   -2.6817 C.2       4 UNK         0.4946 
     21 O          24.3099    2.0031   -2.1940 O.2       4 UNK        -0.5353 
     22 CA         23.0111    0.0475   -2.6491 C.3       4 UNK         0.0277 
     23 CB         22.4123   -0.1063   -4.0564 C.3       4 UNK        -0.1981 
     24 N          23.2136   -1.2729   -2.0539 N.am      4 UNK        -0.4209 
     25 C          23.4374   -1.5074   -0.7549 C.2       3 UNK         0.4942 
     26 O          23.4291   -0.6270    0.1063 O.2       3 UNK        -0.5208 
     27 CA         23.7212   -2.9605   -0.3237 C.3       3 UNK         0.0250 
     28 CB         22.4191   -3.6933    0.0566 C.3       3 UNK        -0.1990 
     29 N          24.5296   -3.7409   -1.2740 N.am      3 UNK        -0.4232 
     30 C          24.2070   -4.1599   -2.5058 C.2       2 UNK         0.4993 
     31 O          23.1055   -3.9877   -3.0332 O.2       2 UNK        -0.5286 
     32 CA         25.3239   -4.8671   -3.2926 C.3       2 UNK         0.0209 
     33 CB         25.1507   -6.3925   -3.2176 C.3       2 UNK        -0.1931 
     34 N          25.3965   -4.4589   -4.7011 N.am      2 UNK        -0.4546 
     35 C          25.5085   -3.1969   -5.1433 C.2       1 UNK         0.5154 
     36 O          25.4991   -2.2130   -4.4022 O.2       1 UNK        -0.5181 
     37 C          26.7396    2.1655   -4.1687 C.2       5 UNK         0.5014 
     38 O          27.4480    3.1060   -3.8014 O.2       5 UNK        -0.5248 
     39 N          25.9200    2.2253   -5.2248 N.am      6 UNK        -0.4434 
     40 CA         25.6953    3.4054   -6.0559 C.3       6 UNK         0.0363 
     41 CB         24.1933    3.5214   -6.3633 C.3       6 UNK        -0.1936 
     42 C          26.5037    3.3378   -7.3570 C.2       6 UNK         0.5081 
     43 O          26.9976    4.3707   -7.8109 O.2       6 UNK        -0.5248 
     44 N          26.6281    2.1373   -7.9376 N.am      7 UNK        -0.4718 
     45 CA         27.4348    1.8877   -9.1292 C.3       7 UNK         0.0273 
     46 CB         26.8446    0.7005   -9.9066 C.3       7 UNK        -0.1935 
     47 C          28.8809    1.6021   -8.7094 C.2       7 UNK         0.5018 
     48 O          29.1047    0.7523   -7.8458 O.2       7 UNK        -0.5186 
     49 N          29.8439    2.2753   -9.3506 N.am      8 UNK        -0.4240 
     50 CA         31.2809    2.1593   -9.0753 C.3       8 UNK         0.0235 
     51 CB         31.9812    3.4606   -9.5094 C.3       8 UNK        -0.2000 
     52 C          31.9282    0.9058   -9.7037 C.2       8 UNK         0.4941 
     53 O          33.0623    0.9786  -10.1826 O.2       8 UNK        -0.5273 
     54 N          31.2074   -0.2235   -9.6948 N.am      9 UNK        -0.4262 
     55 CA         31.6588   -1.5250  -10.1873 C.3       9 UNK         0.0264 
     56 CB         30.4815   -2.5118  -10.1582 C.3       9 UNK        -0.1955 
     57 C          32.8305   -2.0328   -9.3358 C.2       9 UNK         0.5031 
     58 O          32.6718   -2.1769   -8.1237 O.2       9 UNK        -0.5390 
     59 N          33.9990   -2.2100   -9.9658 N.am      10 UNK        -0.4204 
     60 CA         35.3157   -2.5071   -9.3764 C.3       10 UNK         0.0237 
     61 CB         35.3087   -3.8324   -8.5880 C.3       10 UNK        -0.1985 
     62 C          35.9165   -1.3601   -8.5359 C.2       10 UNK         0.4970 
     63 O          37.1389   -1.2087   -8.5361 O.2       10 UNK        -0.4914 
     64 N          35.0739   -0.5712   -7.8570 N.am      11 UNK        -0.4285 
     65 CA         35.4481    0.6280   -7.0926 C.3       11 UNK         0.1007 
     66 C          36.0769    1.7568   -7.9576 C.2       11 UNK         0.5703 
     67 N          35.6413    1.9503   -9.1974 N.am      11 UNK        -0.7361 
     68 O          36.9713    2.4617   -7.4963 O.2       11 UNK        -0.4986 
     69 C69        34.2635    1.1947   -6.2663 C.3       12 UNK        -0.0947 
     70 S70        33.4803   -0.0340   -5.1681 S.3       12 UNK        -0.2240 
     71 C71        31.7343    0.1470   -5.6467 C.3       12 UNK         0.0194 
     72 H72        23.6208    0.4664   -8.6323 H         1 UNK         0.0906 
     73 H73        22.6647    0.2489   -7.1650 H         1 UNK         0.0906 
     74 H74        22.6998   -1.0191   -8.3914 H         1 UNK         0.0906 
     75 H75        23.9544   -2.7202   -7.7548 H         1 UNK         0.3140 
     76 H76        25.5836   -3.9922   -7.1308 H         1 UNK         0.1085 
     77 H77        27.5059   -1.7789   -6.2727 H         1 UNK         0.0836 
     78 H78        27.1693   -2.0363   -7.9488 H         1 UNK         0.0836 
     79 H79        29.8034   -4.8445   -5.4546 H         1 UNK         0.0731 
     80 H80        28.2078   -4.5660   -4.8161 H         1 UNK         0.0731 
     81 H81        30.6375   -2.1953   -6.4968 H         1 UNK         0.1312 
     82 H82        30.8575    0.3805   -3.0796 H         1 UNK         0.1406 
     83 H83        28.5282   -3.2130   -2.9014 H         1 UNK         0.1631 
     84 H84        29.9390   -0.3091   -0.9751 H         1 UNK         0.0717 
     85 H85        29.5272   -1.9924   -0.7825 H         1 UNK         0.0717 
     86 H86        26.9588    1.6550   -1.3582 H         1 UNK         0.0934 
     87 H87        28.4773    1.3341   -2.1496 H         1 UNK         0.0934 
     88 H88        27.2803    0.1267   -3.9931 H         1 UNK         0.0739 
     89 H89        25.2731   -0.6529   -3.6362 H         1 UNK         0.3093 
     90 H90        22.2896    0.5906   -2.0347 H         1 UNK         0.0818 
     91 H91        23.0311   -0.7437   -4.6872 H         1 UNK         0.0819 
     92 H92        21.4166   -0.5477   -4.0148 H         1 UNK         0.0819 
     93 H93        22.3193    0.8608   -4.5527 H         1 UNK         0.0819 
     94 H94        23.2143   -2.0744   -2.6784 H         1 UNK         0.3041 
     95 H95        24.3290   -2.8942    0.5804 H         1 UNK         0.0784 
     96 H96        21.8933   -3.1610    0.8503 H         1 UNK         0.0793 
     97 H97        21.7319   -3.7732   -0.7861 H         1 UNK         0.0793 
     98 H98        22.6222   -4.7002    0.4212 H         1 UNK         0.0793 
     99 H99        25.4733   -3.9184   -0.9579 H         1 UNK         0.3024 
    100 H100       26.2825   -4.6059   -2.8396 H         1 UNK         0.1171 
    101 H101       25.9778   -6.9125   -3.7014 H         1 UNK         0.0786 
    102 H102       25.1187   -6.7330   -2.1815 H         1 UNK         0.0786 
    103 H103       24.2242   -6.7153   -3.6945 H         1 UNK         0.0786 
    104 H104       25.3917   -5.2081   -5.3776 H         1 UNK         0.2977 
    105 H105       25.4707    1.3622   -5.5268 H         1 UNK         0.3127 
    106 H106       26.0002    4.3050   -5.5167 H         1 UNK         0.0770 
    107 H107       23.8231    2.6537   -6.9103 H         1 UNK         0.0814 
    108 H108       23.9867    4.4036   -6.9706 H         1 UNK         0.0814 
    109 H109       23.6093    3.6135   -5.4474 H         1 UNK         0.0814 
    110 H110       26.2458    1.3208   -7.4683 H         1 UNK         0.2983 
    111 H111       27.4105    2.7655   -9.7792 H         1 UNK         0.0947 
    112 H112       27.4296    0.4900  -10.8029 H         1 UNK         0.0806 
    113 H113       25.8229    0.9055  -10.2261 H         1 UNK         0.0806 
    114 H114       26.8300   -0.2082   -9.3060 H         1 UNK         0.0806 
    115 H115       29.5805    2.9259  -10.0773 H         1 UNK         0.3000 
    116 H116       31.4092    2.0688   -7.9955 H         1 UNK         0.0850 
    117 H117       33.0353    3.4526   -9.2285 H         1 UNK         0.0810 
    118 H118       31.5320    4.3323   -9.0332 H         1 UNK         0.0810 
    119 H119       31.9324    3.6034  -10.5896 H         1 UNK         0.0810 
    120 H120       30.3274   -0.2050   -9.1915 H         1 UNK         0.3040 
    121 H121       31.9845   -1.4038  -11.2225 H         1 UNK         0.0766 
    122 H122       30.7852   -3.4948  -10.5203 H         1 UNK         0.0812 
    123 H123       29.6598   -2.1715  -10.7885 H         1 UNK         0.0812 
    124 H124       30.0957   -2.6417   -9.1469 H         1 UNK         0.0812 
    125 H125       34.0206   -2.0115  -10.9572 H         1 UNK         0.3205 
    126 H126       35.9860   -2.6420  -10.2269 H         1 UNK         0.0754 
    127 H127       34.7002   -3.7700   -7.6854 H         1 UNK         0.0769 
    128 H128       36.3185   -4.1021   -8.2758 H         1 UNK         0.0769 
    129 H129       34.9266   -4.6534   -9.1947 H         1 UNK         0.0769 
    130 H130       34.0925   -0.8264   -7.8523 H         1 UNK         0.2981 
    131 H131       36.2174    0.3138   -6.3848 H         1 UNK         0.0541 
    132 H132       34.8545    1.4222   -9.5629 H         1 UNK         0.3459 
    133 H133       36.0574    2.6775   -9.7560 H         1 UNK         0.3459 
    134 H134       33.5108    1.6149   -6.9343 H         1 UNK         0.0612 
    135 H135       34.6029    2.0211   -5.6389 H         1 UNK         0.0612 
    136 H136       31.4122    1.1753   -5.4758 H         1 UNK         0.0624 
    137 H137       31.6360   -0.0366   -6.7169 H         1 UNK         0.0624 
@<TRIPOS>BOND
     1    1    2 1    
     2    1   72 1    
     3    1   73 1    
     4    1   74 1    
     5    2    3 2    
     6    2    4 am   BACKBONE|DICT|INTERRES
     7    4    5 1    
     8    4   75 1    
     9    5    6 1    
    10    5   35 1    
    11    5   76 1    
    12    6    7 1    
    13    6   77 1    
    14    6   78 1    
    15    7    8 1    
    16    8    9 1    
    17    8   79 1    
    18    8   80 1    
    19    9   10 ar   
    20    9   14 ar   
    21   10   11 ar   
    22   10   81 1    
    23   11   12 ar   
    24   11   71 1    
    25   12   13 ar   
    26   12   82 1    
    27   13   14 ar   
    28   13   15 1    
    29   14   83 1    
    30   15   16 1    
    31   15   84 1    
    32   15   85 1    
    33   16   17 1    
    34   17   18 1    
    35   17   86 1    
    36   17   87 1    
    37   18   19 1    
    38   18   37 1    
    39   18   88 1    
    40   19   20 am   BACKBONE|DICT|INTERRES
    41   19   89 1    
    42   20   21 2    
    43   20   22 1    
    44   22   23 1    
    45   22   24 1    
    46   22   90 1    
    47   23   91 1    
    48   23   92 1    
    49   23   93 1    
    50   24   25 am   BACKBONE|DICT|INTERRES
    51   24   94 1    
    52   25   26 2    
    53   25   27 1    
    54   27   28 1    
    55   27   29 1    
    56   27   95 1    
    57   28   96 1    
    58   28   97 1    
    59   28   98 1    
    60   29   30 am   BACKBONE|DICT|INTERRES
    61   29   99 1    
    62   30   31 2    
    63   30   32 1    
    64   32   33 1    
    65   32   34 1    
    66   32  100 1    
    67   33  101 1    
    68   33  102 1    
    69   33  103 1    
    70   34   35 am   BACKBONE|DICT|INTERRES
    71   34  104 1    
    72   35   36 2    
    73   37   38 2    
    74   37   39 am   BACKBONE|DICT|INTERRES
    75   39   40 1    
    76   39  105 1    
    77   40   41 1    
    78   40   42 1    
    79   40  106 1    
    80   41  107 1    
    81   41  108 1    
    82   41  109 1    
    83   42   43 2    
    84   42   44 am   BACKBONE|DICT|INTERRES
    85   44   45 1    
    86   44  110 1    
    87   45   46 1    
    88   45   47 1    
    89   45  111 1    
    90   46  112 1    
    91   46  113 1    
    92   46  114 1    
    93   47   48 2    
    94   47   49 am   BACKBONE|DICT|INTERRES
    95   49   50 1    
    96   49  115 1    
    97   50   51 1    
    98   50   52 1    
    99   50  116 1    
   100   51  117 1    
   101   51  118 1    
   102   51  119 1    
   103   52   53 2    
   104   52   54 am   BACKBONE|DICT|INTERRES
   105   54   55 1    
   106   54  120 1    
   107   55   56 1    
   108   55   57 1    
   109   55  121 1    
   110   56  122 1    
   111   56  123 1    
   112   56  124 1    
   113   57   58 2    
   114   57   59 am   BACKBONE|DICT|INTERRES
   115   59   60 1    
   116   59  125 1    
   117   60   61 1    
   118   60   62 1    
   119   60  126 1    
   120   61  127 1    
   121   61  128 1    
   122   61  129 1    
   123   62   63 2    
   124   62   64 am   BACKBONE|DICT|INTERRES
   125   64   65 1    
   126   64  130 1    
   127   65   66 1    
   128   65   69 1    
   129   65  131 1    
   130   66   67 am   BACKBONE|DICT|INTERRES
   131   66   68 2    
   132   67  132 1    
   133   67  133 1    
   134   69   70 1    
   135   69  134 1    
   136   69  135 1    
   137   70   71 1    
   138   71  136 1    
   139   71  137 1    
@<TRIPOS>SUBSTRUCTURE
     1 UNK         1 GROUP             0       ****    0 ROOT    
