@<TRIPOS>MOLECULE
3R137
137   139    1
SMALL
USER_CHARGES


@<TRIPOS>ATOM
      1 CA         27.5984   -3.4044    2.5378 C.3       0 UNK        -0.2020 
      2 C          27.2061   -2.8730    1.1678 C.2       0 UNK         0.4855 
      3 O          27.3042   -3.6026    0.1815 O.2       0 UNK        -0.5197 
      4 N          26.7479   -1.6147    1.1050 N.am      1 UNK        -0.4892 
      5 CA         26.3493   -0.8375   -0.0854 C.3       1 UNK         0.0835 
      6 C6         27.4658   -0.6902   -1.1527 C.3       12 UNK        -0.0855 
      7 S7         29.0143    0.0219   -0.4911 S.3       12 UNK        -0.2931 
      8 C8         30.2002   -1.3462   -0.7130 C.3       12 UNK         0.0378 
      9 C9         30.4930   -1.6291   -2.1814 C.ar      12 UNK        -0.0802 
     10 C10        31.4078   -0.8401   -2.8872 C.ar      12 UNK        -0.0944 
     11 C11        31.6754   -1.1007   -4.2353 C.ar      12 UNK        -0.0787 
     12 C12        31.0243   -2.1577   -4.8770 C.ar      12 UNK        -0.0862 
     13 C13        30.1204   -2.9604   -4.1786 C.ar      12 UNK        -0.0733 
     14 C14        29.8620   -2.6945   -2.8311 C.ar      12 UNK        -0.0832 
     15 C15        29.4370   -4.1311   -4.8641 C.3       12 UNK         0.0240 
     16 S16        27.7491   -3.7049   -5.3856 S.3       12 UNK        -0.2522 
     17 C17        27.9986   -2.9992   -7.0517 C.3       12 UNK        -0.0967 
     18 CA         27.4467   -1.5625   -7.2470 C.3       5 UNK         0.0660 
     19 N          26.1344   -1.3616   -6.6165 N.am      5 UNK        -0.4015 
     20 C          25.3044   -0.3428   -6.8811 C.2       4 UNK         0.4946 
     21 O          25.5875    0.5572   -7.6723 O.2       4 UNK        -0.5353 
     22 CA         23.9672   -0.2722   -6.1138 C.3       4 UNK         0.0277 
     23 CB         22.8297    0.3047   -6.9835 C.3       4 UNK        -0.1981 
     24 N          23.5522   -1.5299   -5.4774 N.am      4 UNK        -0.4209 
     25 C          23.2525   -2.6952   -6.0714 C.2       3 UNK         0.4942 
     26 O          23.2879   -2.8644   -7.2908 O.2       3 UNK        -0.5208 
     27 CA         22.8255   -3.8756   -5.1710 C.3       3 UNK         0.0250 
     28 CB         23.6148   -5.1574   -5.5152 C.3       3 UNK        -0.1990 
     29 N          22.8537   -3.6257   -3.7181 N.am      3 UNK        -0.4232 
     30 C          23.9241   -3.3674   -2.9522 C.2       2 UNK         0.4993 
     31 O          25.0617   -3.2104   -3.3971 O.2       2 UNK        -0.5286 
     32 CA         23.6710   -3.2802   -1.4366 C.3       2 UNK         0.0209 
     33 CB         23.4849   -4.6848   -0.8379 C.3       2 UNK        -0.1931 
     34 N          24.7842   -2.6283   -0.7473 N.am      2 UNK        -0.4546 
     35 C          25.0371   -1.3154   -0.7494 C.2       1 UNK         0.5154 
     36 O          24.2757   -0.4834   -1.2461 O.2       1 UNK        -0.5181 
     37 C          28.4749   -0.4621   -6.9025 C.2       5 UNK         0.5014 
     38 O          29.3662   -0.1958   -7.7130 O.2       5 UNK        -0.5248 
     39 N          28.3082    0.1978   -5.7476 N.am      6 UNK        -0.4434 
     40 CA         29.0619    1.3937   -5.3682 C.3       6 UNK         0.0363 
     41 CB         28.8663    1.6753   -3.8730 C.3       6 UNK        -0.1936 
     42 C          28.6640    2.6234   -6.2001 C.2       6 UNK         0.5081 
     43 O          29.5421    3.3653   -6.6374 O.2       6 UNK        -0.5248 
     44 N          27.3544    2.8053   -6.4259 N.am      7 UNK        -0.4718 
     45 CA         26.7910    3.8973   -7.2276 C.3       7 UNK         0.0273 
     46 CB         25.2819    4.0125   -6.9603 C.3       7 UNK        -0.1935 
     47 C          27.0704    3.7227   -8.7286 C.2       7 UNK         0.5018 
     48 O          27.3463    4.7078   -9.4135 O.2       7 UNK        -0.5186 
     49 N          27.0417    2.4676   -9.1988 N.am      8 UNK        -0.4240 
     50 CA         27.4539    2.0617  -10.5455 C.3       8 UNK         0.0235 
     51 CB         26.9500    0.6345  -10.8130 C.3       8 UNK        -0.2000 
     52 C          28.9771    2.1408  -10.7738 C.2       8 UNK         0.4941 
     53 O          29.4062    2.0662  -11.9258 O.2       8 UNK        -0.5273 
     54 N          29.7537    2.2849   -9.6881 N.am      9 UNK        -0.4262 
     55 CA         31.2140    2.3789   -9.6283 C.3       9 UNK         0.0264 
     56 CB         31.7127    3.6719  -10.3083 C.3       9 UNK        -0.1955 
     57 C          31.9046    1.1081  -10.1527 C.2       9 UNK         0.5031 
     58 O          32.7824    1.1898  -11.0143 O.2       9 UNK        -0.5390 
     59 N          31.4974   -0.0512   -9.6148 N.am      10 UNK        -0.4204 
     60 CA         32.0918   -1.3566   -9.9250 C.3       10 UNK         0.0237 
     61 CB         31.1879   -2.4690   -9.3722 C.3       10 UNK        -0.1985 
     62 C          33.5290   -1.5174   -9.3913 C.2       10 UNK         0.4970 
     63 O          34.2951   -2.3002   -9.9544 O.2       10 UNK        -0.4914 
     64 N          33.8630   -0.7848   -8.3214 N.am      11 UNK        -0.4285 
     65 CA         35.2046   -0.7075   -7.7299 C.3       11 UNK         0.1007 
     66 C          36.1918    0.0573   -8.6513 C.2       11 UNK         0.5703 
     67 N          37.3970   -0.4611   -8.8425 N.am      11 UNK        -0.7361 
     68 O          35.8887    1.1374   -9.1535 O.2       11 UNK        -0.4986 
     69 C69        35.1604   -0.0624   -6.3203 C.3       12 UNK        -0.0947 
     70 S70        34.2755   -1.1057   -5.1175 S.3       12 UNK        -0.2240 
     71 C71        32.6735   -0.2546   -5.0066 C.3       12 UNK         0.0194 
     72 H72        27.4601   -2.6593    3.3211 H         1 UNK         0.0906 
     73 H73        26.9954   -4.2768    2.7885 H         1 UNK         0.0906 
     74 H74        28.6463   -3.7036    2.5362 H         1 UNK         0.0906 
     75 H75        26.6726   -1.0979    1.9706 H         1 UNK         0.3140 
     76 H76        26.1348    0.1644    0.2910 H         1 UNK         0.1085 
     77 H77        27.1291   -0.0353   -1.9583 H         1 UNK         0.0836 
     78 H78        27.6618   -1.6527   -1.6233 H         1 UNK         0.0836 
     79 H79        31.1296   -1.0897   -0.2026 H         1 UNK         0.0731 
     80 H80        29.8213   -2.2406   -0.2169 H         1 UNK         0.0731 
     81 H81        31.9068   -0.0215   -2.3867 H         1 UNK         0.1312 
     82 H82        31.2349   -2.3621   -5.9169 H         1 UNK         0.1406 
     83 H83        29.1629   -3.3187   -2.2897 H         1 UNK         0.1631 
     84 H84        30.0201   -4.4850   -5.7155 H         1 UNK         0.0717 
     85 H85        29.3817   -4.9709   -4.1699 H         1 UNK         0.0717 
     86 H86        27.4842   -3.6658   -7.7458 H         1 UNK         0.0934 
     87 H87        29.0499   -3.0593   -7.3346 H         1 UNK         0.0934 
     88 H88        27.2775   -1.4537   -8.3194 H         1 UNK         0.0739 
     89 H89        25.8568   -2.0616   -5.9409 H         1 UNK         0.3093 
     90 H90        24.1379    0.4298   -5.2965 H         1 UNK         0.0818 
     91 H91        21.8978    0.3765   -6.4229 H         1 UNK         0.0819 
     92 H92        23.0707    1.3085   -7.3343 H         1 UNK         0.0819 
     93 H93        22.6446   -0.3080   -7.8662 H         1 UNK         0.0819 
     94 H94        23.5258   -1.5165   -4.4671 H         1 UNK         0.3041 
     95 H95        21.7790   -4.0630   -5.4160 H         1 UNK         0.0784 
     96 H96        23.4789   -5.4349   -6.5612 H         1 UNK         0.0793 
     97 H97        24.6859   -5.0304   -5.3524 H         1 UNK         0.0793 
     98 H98        23.2821   -6.0028   -4.9130 H         1 UNK         0.0793 
     99 H99        21.9567   -3.7087   -3.2585 H         1 UNK         0.3024 
    100 H100       22.7639   -2.6950   -1.2678 H         1 UNK         0.1171 
    101 H101       22.6394   -5.2020   -1.2932 H         1 UNK         0.0786 
    102 H102       23.2923   -4.6360    0.2341 H         1 UNK         0.0786 
    103 H103       24.3684   -5.3066   -0.9908 H         1 UNK         0.0786 
    104 H104       25.5269   -3.2285   -0.4001 H         1 UNK         0.2977 
    105 H105       27.5786   -0.1083   -5.1219 H         1 UNK         0.3127 
    106 H106       30.1218    1.1998   -5.5426 H         1 UNK         0.0770 
    107 H107       29.4586    2.5346   -3.5560 H         1 UNK         0.0814 
    108 H108       29.1876    0.8253   -3.2753 H         1 UNK         0.0814 
    109 H109       27.8252    1.8854   -3.6262 H         1 UNK         0.0814 
    110 H110       26.7021    2.1174   -6.0797 H         1 UNK         0.2983 
    111 H111       27.2648    4.8295   -6.9110 H         1 UNK         0.0947 
    112 H112       24.8513    4.8452   -7.5182 H         1 UNK         0.0806 
    113 H113       25.0775    4.1910   -5.9045 H         1 UNK         0.0806 
    114 H114       24.7469    3.1111   -7.2592 H         1 UNK         0.0806 
    115 H115       26.7025    1.7320   -8.5809 H         1 UNK         0.3000 
    116 H116       26.9789    2.7354  -11.2617 H         1 UNK         0.0850 
    117 H117       27.1400    0.3414  -11.8463 H         1 UNK         0.0810 
    118 H118       25.8763    0.5501  -10.6426 H         1 UNK         0.0810 
    119 H119       27.4513   -0.0911  -10.1732 H         1 UNK         0.0810 
    120 H120       29.2889    2.3175   -8.7906 H         1 UNK         0.3040 
    121 H121       31.4696    2.4493   -8.5699 H         1 UNK         0.0766 
    122 H122       31.2272    4.5523   -9.8872 H         1 UNK         0.0812 
    123 H123       32.7873    3.7954  -10.1680 H         1 UNK         0.0812 
    124 H124       31.5248    3.6660  -11.3823 H         1 UNK         0.0812 
    125 H125       30.7357   -0.0421   -8.9355 H         1 UNK         0.3205 
    126 H126       32.1314   -1.4575  -11.0117 H         1 UNK         0.0754 
    127 H127       31.5666   -3.4542   -9.6479 H         1 UNK         0.0769 
    128 H128       30.1731   -2.3892   -9.7630 H         1 UNK         0.0769 
    129 H129       31.1344   -2.4325   -8.2847 H         1 UNK         0.0769 
    130 H130       33.1772   -0.1493   -7.9482 H         1 UNK         0.2981 
    131 H131       35.5717   -1.7302   -7.6201 H         1 UNK         0.0541 
    132 H132       38.0557    0.0326   -9.4245 H         1 UNK         0.3459 
    133 H133       37.6590   -1.3401   -8.4245 H         1 UNK         0.3459 
    134 H134       34.7117    0.9322   -6.3559 H         1 UNK         0.0612 
    135 H135       36.1722    0.0756   -5.9343 H         1 UNK         0.0612 
    136 H136       32.8091    0.7167   -4.5286 H         1 UNK         0.0624 
    137 H137       32.2862   -0.0598   -6.0073 H         1 UNK         0.0624 
@<TRIPOS>BOND
     1    1    2 1    
     2    1   72 1    
     3    1   73 1    
     4    1   74 1    
     5    2    3 2    
     6    2    4 am   BACKBONE|DICT|INTERRES
     7    4    5 1    
     8    4   75 1    
     9    5    6 1    
    10    5   35 1    
    11    5   76 1    
    12    6    7 1    
    13    6   77 1    
    14    6   78 1    
    15    7    8 1    
    16    8    9 1    
    17    8   79 1    
    18    8   80 1    
    19    9   10 ar   
    20    9   14 ar   
    21   10   11 ar   
    22   10   81 1    
    23   11   12 ar   
    24   11   71 1    
    25   12   13 ar   
    26   12   82 1    
    27   13   14 ar   
    28   13   15 1    
    29   14   83 1    
    30   15   16 1    
    31   15   84 1    
    32   15   85 1    
    33   16   17 1    
    34   17   18 1    
    35   17   86 1    
    36   17   87 1    
    37   18   19 1    
    38   18   37 1    
    39   18   88 1    
    40   19   20 am   BACKBONE|DICT|INTERRES
    41   19   89 1    
    42   20   21 2    
    43   20   22 1    
    44   22   23 1    
    45   22   24 1    
    46   22   90 1    
    47   23   91 1    
    48   23   92 1    
    49   23   93 1    
    50   24   25 am   BACKBONE|DICT|INTERRES
    51   24   94 1    
    52   25   26 2    
    53   25   27 1    
    54   27   28 1    
    55   27   29 1    
    56   27   95 1    
    57   28   96 1    
    58   28   97 1    
    59   28   98 1    
    60   29   30 am   BACKBONE|DICT|INTERRES
    61   29   99 1    
    62   30   31 2    
    63   30   32 1    
    64   32   33 1    
    65   32   34 1    
    66   32  100 1    
    67   33  101 1    
    68   33  102 1    
    69   33  103 1    
    70   34   35 am   BACKBONE|DICT|INTERRES
    71   34  104 1    
    72   35   36 2    
    73   37   38 2    
    74   37   39 am   BACKBONE|DICT|INTERRES
    75   39   40 1    
    76   39  105 1    
    77   40   41 1    
    78   40   42 1    
    79   40  106 1    
    80   41  107 1    
    81   41  108 1    
    82   41  109 1    
    83   42   43 2    
    84   42   44 am   BACKBONE|DICT|INTERRES
    85   44   45 1    
    86   44  110 1    
    87   45   46 1    
    88   45   47 1    
    89   45  111 1    
    90   46  112 1    
    91   46  113 1    
    92   46  114 1    
    93   47   48 2    
    94   47   49 am   BACKBONE|DICT|INTERRES
    95   49   50 1    
    96   49  115 1    
    97   50   51 1    
    98   50   52 1    
    99   50  116 1    
   100   51  117 1    
   101   51  118 1    
   102   51  119 1    
   103   52   53 2    
   104   52   54 am   BACKBONE|DICT|INTERRES
   105   54   55 1    
   106   54  120 1    
   107   55   56 1    
   108   55   57 1    
   109   55  121 1    
   110   56  122 1    
   111   56  123 1    
   112   56  124 1    
   113   57   58 2    
   114   57   59 am   BACKBONE|DICT|INTERRES
   115   59   60 1    
   116   59  125 1    
   117   60   61 1    
   118   60   62 1    
   119   60  126 1    
   120   61  127 1    
   121   61  128 1    
   122   61  129 1    
   123   62   63 2    
   124   62   64 am   BACKBONE|DICT|INTERRES
   125   64   65 1    
   126   64  130 1    
   127   65   66 1    
   128   65   69 1    
   129   65  131 1    
   130   66   67 am   BACKBONE|DICT|INTERRES
   131   66   68 2    
   132   67  132 1    
   133   67  133 1    
   134   69   70 1    
   135   69  134 1    
   136   69  135 1    
   137   70   71 1    
   138   71  136 1    
   139   71  137 1    
@<TRIPOS>SUBSTRUCTURE
     1 UNK         1 GROUP             0       ****    0 ROOT    
