@<TRIPOS>MOLECULE
3R137
137   139    1
SMALL
USER_CHARGES


@<TRIPOS>ATOM
      1 CA         28.4391    0.0473    2.4971 C.3       0 UNK        -0.2020 
      2 C          27.9769   -1.3422    2.0662 C.2       0 UNK         0.4855 
      3 O          27.4396   -2.0813    2.8883 O.2       0 UNK        -0.5197 
      4 N          28.1575   -1.7483    0.8009 N.am      1 UNK        -0.4892 
      5 CA         28.7660   -0.9842   -0.3010 C.3       1 UNK         0.0835 
      6 C6         29.2777   -1.9125   -1.4295 C.3       12 UNK        -0.0855 
      7 S7         30.4946   -3.1424   -0.8544 S.3       12 UNK        -0.2931 
      8 C8         29.9716   -4.6299   -1.7787 C.3       12 UNK         0.0378 
      9 C9         30.0355   -4.4870   -3.3005 C.ar      12 UNK        -0.0802 
     10 C10        31.0668   -3.7777   -3.9271 C.ar      12 UNK        -0.0944 
     11 C11        31.1175   -3.6634   -5.3201 C.ar      12 UNK        -0.0787 
     12 C12        30.1400   -4.2963   -6.0971 C.ar      12 UNK        -0.0862 
     13 C13        29.1251   -5.0426   -5.4877 C.ar      12 UNK        -0.0733 
     14 C14        29.0708   -5.1190   -4.0920 C.ar      12 UNK        -0.0832 
     15 C15        28.1273   -5.8317   -6.3257 C.3       12 UNK         0.0240 
     16 S16        26.5314   -4.9721   -6.5111 S.3       12 UNK        -0.2522 
     17 C17        26.5328   -4.4935   -8.2791 C.3       12 UNK        -0.0967 
     18 CA         26.3161   -2.9813   -8.5300 C.3       5 UNK         0.0660 
     19 N          25.0856   -2.4809   -7.9120 N.am      5 UNK        -0.4015 
     20 C          24.5487   -1.2752   -8.1462 C.2       4 UNK         0.4946 
     21 O          24.9955   -0.4743   -8.9663 O.2       4 UNK        -0.5353 
     22 CA         23.3398   -0.8726   -7.2838 C.3       4 UNK         0.0277 
     23 CB         22.0312   -1.3527   -7.9311 C.3       4 UNK        -0.1981 
     24 N          23.4178   -1.3612   -5.9018 N.am      4 UNK        -0.4209 
     25 C          24.3901   -1.0402   -5.0369 C.2       3 UNK         0.4942 
     26 O          25.3412   -0.3083   -5.3191 O.2       3 UNK        -0.5208 
     27 CA         24.3210   -1.7150   -3.6570 C.3       3 UNK         0.0250 
     28 CB         24.9665   -3.1098   -3.7167 C.3       3 UNK        -0.1990 
     29 N          24.9940   -0.9399   -2.6145 N.am      3 UNK        -0.4232 
     30 C          24.6036    0.2558   -2.1510 C.2       2 UNK         0.4993 
     31 O          23.5934    0.8417   -2.5442 O.2       2 UNK        -0.5286 
     32 CA         25.4572    0.8922   -1.0357 C.3       2 UNK         0.0209 
     33 CB         24.5841    1.2937    0.1674 C.3       2 UNK        -0.1931 
     34 N          26.5176   -0.0042   -0.5592 N.am      2 UNK        -0.4546 
     35 C          27.8131    0.0798   -0.8925 C.2       1 UNK         0.5154 
     36 O          28.2673    0.9462   -1.6390 O.2       1 UNK        -0.5181 
     37 C          27.5522   -2.1529   -8.1309 C.2       5 UNK         0.5014 
     38 O          28.3913   -1.8744   -8.9866 O.2       5 UNK        -0.5248 
     39 N          27.6253   -1.7472   -6.8561 N.am      6 UNK        -0.4434 
     40 CA         28.6950   -0.9102   -6.3202 C.3       6 UNK         0.0363 
     41 CB         28.6543   -0.9251   -4.7864 C.3       6 UNK        -0.1936 
     42 C          28.6259    0.5218   -6.8602 C.2       6 UNK         0.5081 
     43 O          29.6621    1.0849   -7.2127 O.2       6 UNK        -0.5248 
     44 N          27.4039    1.0630   -6.9628 N.am      7 UNK        -0.4718 
     45 CA         27.1177    2.3567   -7.5844 C.3       7 UNK         0.0273 
     46 CB         25.6453    2.7283   -7.3492 C.3       7 UNK        -0.1935 
     47 C          27.4619    2.3810   -9.0840 C.2       7 UNK         0.5018 
     48 O          28.0486    3.3590   -9.5474 O.2       7 UNK        -0.5186 
     49 N          27.1231    1.3004   -9.8039 N.am      8 UNK        -0.4240 
     50 CA         27.4603    1.1015  -11.2159 C.3       8 UNK         0.0235 
     51 CB         26.6894   -0.1062  -11.7727 C.3       8 UNK        -0.2000 
     52 C          28.9711    0.9394  -11.4528 C.2       8 UNK         0.4941 
     53 O          29.4991    1.5395  -12.3900 O.2       8 UNK        -0.5273 
     54 N          29.6406    0.1474  -10.6018 N.am      9 UNK        -0.4262 
     55 CA         31.0922   -0.0572  -10.6286 C.3       9 UNK         0.0264 
     56 CB         31.4599   -1.2409   -9.7173 C.3       9 UNK        -0.1955 
     57 C          31.8924    1.1894  -10.2142 C.2       9 UNK         0.5031 
     58 O          33.0167    1.3604  -10.6876 O.2       9 UNK        -0.5390 
     59 N          31.3121    2.0074   -9.3224 N.am      10 UNK        -0.4204 
     60 CA         31.9107    3.1597   -8.6397 C.3       10 UNK         0.0237 
     61 CB         32.2510    4.2893   -9.6351 C.3       10 UNK        -0.1985 
     62 C          33.0993    2.7421   -7.7515 C.2       10 UNK         0.4970 
     63 O          34.1075    3.4486   -7.6929 O.2       10 UNK        -0.4914 
     64 N          32.9605    1.5840   -7.0924 N.am      11 UNK        -0.4285 
     65 CA         33.9943    0.9625   -6.2517 C.3       11 UNK         0.1007 
     66 C          34.1617    1.5911   -4.8367 C.2       11 UNK         0.5703 
     67 N          33.2898    2.4931   -4.4006 N.am      11 UNK        -0.7361 
     68 O          35.1133    1.2673   -4.1297 O.2       11 UNK        -0.4986 
     69 C69        33.8350   -0.5810   -6.2094 C.3       12 UNK        -0.0947 
     70 S70        32.2552   -1.1367   -5.4899 S.3       12 UNK        -0.2240 
     71 C71        32.2563   -2.8910   -5.9750 C.3       12 UNK         0.0194 
     72 H72        28.2407    0.2014    3.5576 H         1 UNK         0.0906 
     73 H73        29.5110    0.1677    2.3442 H         1 UNK         0.0906 
     74 H74        27.9122    0.8272    1.9488 H         1 UNK         0.0906 
     75 H75        27.8799   -2.6897    0.5616 H         1 UNK         0.3140 
     76 H76        29.6318   -0.4443    0.0870 H         1 UNK         0.1085 
     77 H77        29.7714   -1.3262   -2.2060 H         1 UNK         0.0836 
     78 H78        28.4431   -2.4243   -1.9128 H         1 UNK         0.0836 
     79 H79        30.6109   -5.4631   -1.4844 H         1 UNK         0.0731 
     80 H80        28.9604   -4.8920   -1.4631 H         1 UNK         0.0731 
     81 H81        31.8344   -3.3031   -3.3318 H         1 UNK         0.1312 
     82 H82        30.1834   -4.2309   -7.1757 H         1 UNK         0.1406 
     83 H83        28.2855   -5.6970   -3.6234 H         1 UNK         0.1631 
     84 H84        27.9391   -6.7924   -5.8439 H         1 UNK         0.0717 
     85 H85        28.5574   -6.0772   -7.2970 H         1 UNK         0.0717 
     86 H86        27.4505   -4.8236   -8.7685 H         1 UNK         0.0934 
     87 H87        25.7345   -5.0545   -8.7676 H         1 UNK         0.0934 
     88 H88        26.1969   -2.8510   -9.6080 H         1 UNK         0.0739 
     89 H89        24.6584   -3.0798   -7.2211 H         1 UNK         0.3093 
     90 H90        23.3190    0.2184   -7.2434 H         1 UNK         0.0818 
     91 H91        21.1608   -0.9889   -7.3846 H         1 UNK         0.0819 
     92 H92        21.9450   -0.9837   -8.9543 H         1 UNK         0.0819 
     93 H93        21.9728   -2.4411   -7.9715 H         1 UNK         0.0819 
     94 H94        22.6764   -1.9756   -5.5958 H         1 UNK         0.3041 
     95 H95        23.2718   -1.8198   -3.3727 H         1 UNK         0.0784 
     96 H96        24.4694   -3.7441   -4.4517 H         1 UNK         0.0793 
     97 H97        26.0214   -3.0575   -3.9913 H         1 UNK         0.0793 
     98 H98        24.8966   -3.6217   -2.7567 H         1 UNK         0.0793 
     99 H99        25.8492   -1.3262   -2.2483 H         1 UNK         0.3024 
    100 H100       25.8940    1.8009   -1.4566 H         1 UNK         0.1171 
    101 H101       23.8135    2.0080   -0.1257 H         1 UNK         0.0786 
    102 H102       25.1797    1.7679    0.9478 H         1 UNK         0.0786 
    103 H103       24.0803    0.4318    0.6067 H         1 UNK         0.0786 
    104 H104       26.2354   -0.7503    0.0621 H         1 UNK         0.2977 
    105 H105       26.8709   -1.9787   -6.2269 H         1 UNK         0.3127 
    106 H106       29.6416   -1.3425   -6.6448 H         1 UNK         0.0770 
    107 H107       27.7410   -0.4827   -4.3898 H         1 UNK         0.0814 
    108 H108       29.4896   -0.3562   -4.3771 H         1 UNK         0.0814 
    109 H109       28.7319   -1.9423   -4.4045 H         1 UNK         0.0814 
    110 H110       26.6151    0.5407   -6.5910 H         1 UNK         0.2983 
    111 H111       27.7420    3.1043   -7.0903 H         1 UNK         0.0947 
    112 H112       25.4241    3.7169   -7.7535 H         1 UNK         0.0806 
    113 H113       25.4066    2.7504   -6.2855 H         1 UNK         0.0806 
    114 H114       24.9680    2.0213   -7.8284 H         1 UNK         0.0806 
    115 H115       26.5687    0.5725   -9.3595 H         1 UNK         0.3000 
    116 H116       27.1349    1.9900  -11.7613 H         1 UNK         0.0850 
    117 H117       26.9122   -0.2590  -12.8295 H         1 UNK         0.0810 
    118 H118       25.6123    0.0377  -11.6856 H         1 UNK         0.0810 
    119 H119       26.9462   -1.0266  -11.2477 H         1 UNK         0.0810 
    120 H120       29.1198   -0.3832   -9.9063 H         1 UNK         0.3040 
    121 H121       31.3790   -0.3100  -11.6515 H         1 UNK         0.0766 
    122 H122       32.5356   -1.4223   -9.7233 H         1 UNK         0.0812 
    123 H123       30.9745   -2.1600  -10.0456 H         1 UNK         0.0812 
    124 H124       31.1655   -1.0594   -8.6828 H         1 UNK         0.0812 
    125 H125       30.4204    1.7112   -8.9353 H         1 UNK         0.3205 
    126 H126       31.1438    3.5386   -7.9624 H         1 UNK         0.0754 
    127 H127       32.5649    5.1914   -9.1087 H         1 UNK         0.0769 
    128 H128       31.3849    4.5533  -10.2423 H         1 UNK         0.0769 
    129 H129       33.0608    4.0087  -10.3091 H         1 UNK         0.0769 
    130 H130       32.0791    1.0911   -7.1495 H         1 UNK         0.2981 
    131 H131       34.9493    1.1484   -6.7471 H         1 UNK         0.0541 
    132 H132       32.5050    2.7601   -4.9719 H         1 UNK         0.3459 
    133 H133       33.4132    2.8981   -3.4864 H         1 UNK         0.3459 
    134 H134       34.6529   -1.0379   -5.6495 H         1 UNK         0.0612 
    135 H135       33.9088   -0.9790   -7.2227 H         1 UNK         0.0612 
    136 H136       32.1968   -2.9574   -7.0624 H         1 UNK         0.0624 
    137 H137       33.2048   -3.3443   -5.6838 H         1 UNK         0.0624 
@<TRIPOS>BOND
     1    1    2 1    
     2    1   72 1    
     3    1   73 1    
     4    1   74 1    
     5    2    3 2    
     6    2    4 am   BACKBONE|DICT|INTERRES
     7    4    5 1    
     8    4   75 1    
     9    5    6 1    
    10    5   35 1    
    11    5   76 1    
    12    6    7 1    
    13    6   77 1    
    14    6   78 1    
    15    7    8 1    
    16    8    9 1    
    17    8   79 1    
    18    8   80 1    
    19    9   10 ar   
    20    9   14 ar   
    21   10   11 ar   
    22   10   81 1    
    23   11   12 ar   
    24   11   71 1    
    25   12   13 ar   
    26   12   82 1    
    27   13   14 ar   
    28   13   15 1    
    29   14   83 1    
    30   15   16 1    
    31   15   84 1    
    32   15   85 1    
    33   16   17 1    
    34   17   18 1    
    35   17   86 1    
    36   17   87 1    
    37   18   19 1    
    38   18   37 1    
    39   18   88 1    
    40   19   20 am   BACKBONE|DICT|INTERRES
    41   19   89 1    
    42   20   21 2    
    43   20   22 1    
    44   22   23 1    
    45   22   24 1    
    46   22   90 1    
    47   23   91 1    
    48   23   92 1    
    49   23   93 1    
    50   24   25 am   BACKBONE|DICT|INTERRES
    51   24   94 1    
    52   25   26 2    
    53   25   27 1    
    54   27   28 1    
    55   27   29 1    
    56   27   95 1    
    57   28   96 1    
    58   28   97 1    
    59   28   98 1    
    60   29   30 am   BACKBONE|DICT|INTERRES
    61   29   99 1    
    62   30   31 2    
    63   30   32 1    
    64   32   33 1    
    65   32   34 1    
    66   32  100 1    
    67   33  101 1    
    68   33  102 1    
    69   33  103 1    
    70   34   35 am   BACKBONE|DICT|INTERRES
    71   34  104 1    
    72   35   36 2    
    73   37   38 2    
    74   37   39 am   BACKBONE|DICT|INTERRES
    75   39   40 1    
    76   39  105 1    
    77   40   41 1    
    78   40   42 1    
    79   40  106 1    
    80   41  107 1    
    81   41  108 1    
    82   41  109 1    
    83   42   43 2    
    84   42   44 am   BACKBONE|DICT|INTERRES
    85   44   45 1    
    86   44  110 1    
    87   45   46 1    
    88   45   47 1    
    89   45  111 1    
    90   46  112 1    
    91   46  113 1    
    92   46  114 1    
    93   47   48 2    
    94   47   49 am   BACKBONE|DICT|INTERRES
    95   49   50 1    
    96   49  115 1    
    97   50   51 1    
    98   50   52 1    
    99   50  116 1    
   100   51  117 1    
   101   51  118 1    
   102   51  119 1    
   103   52   53 2    
   104   52   54 am   BACKBONE|DICT|INTERRES
   105   54   55 1    
   106   54  120 1    
   107   55   56 1    
   108   55   57 1    
   109   55  121 1    
   110   56  122 1    
   111   56  123 1    
   112   56  124 1    
   113   57   58 2    
   114   57   59 am   BACKBONE|DICT|INTERRES
   115   59   60 1    
   116   59  125 1    
   117   60   61 1    
   118   60   62 1    
   119   60  126 1    
   120   61  127 1    
   121   61  128 1    
   122   61  129 1    
   123   62   63 2    
   124   62   64 am   BACKBONE|DICT|INTERRES
   125   64   65 1    
   126   64  130 1    
   127   65   66 1    
   128   65   69 1    
   129   65  131 1    
   130   66   67 am   BACKBONE|DICT|INTERRES
   131   66   68 2    
   132   67  132 1    
   133   67  133 1    
   134   69   70 1    
   135   69  134 1    
   136   69  135 1    
   137   70   71 1    
   138   71  136 1    
   139   71  137 1    
@<TRIPOS>SUBSTRUCTURE
     1 UNK         1 GROUP             0       ****    0 ROOT    
