@<TRIPOS>MOLECULE
3R137
137   139    1
SMALL
USER_CHARGES


@<TRIPOS>ATOM
      1 CA         26.0810   -4.3410    3.8839 C.3       0 UNK        -0.2020 
      2 C          26.4649   -3.1166    3.0660 C.2       0 UNK         0.4855 
      3 O          26.0932   -1.9991    3.4266 O.2       0 UNK        -0.5197 
      4 N          27.2124   -3.3167    1.9732 N.am      1 UNK        -0.4892 
      5 CA         27.6079   -2.2648    1.0292 C.3       1 UNK         0.0835 
      6 C6         28.8565   -2.6890    0.2060 C.3       12 UNK        -0.0855 
      7 S7         30.0488   -1.3225   -0.0040 S.3       12 UNK        -0.2931 
      8 C8         29.7926   -0.8257   -1.7362 C.3       12 UNK         0.0378 
      9 C9         30.3687   -1.8274   -2.7247 C.ar      12 UNK        -0.0802 
     10 C10        31.7383   -1.8382   -3.0018 C.ar      12 UNK        -0.0944 
     11 C11        32.2672   -2.7235   -3.9491 C.ar      12 UNK        -0.0787 
     12 C12        31.4101   -3.6134   -4.6064 C.ar      12 UNK        -0.0862 
     13 C13        30.0410   -3.6250   -4.3236 C.ar      12 UNK        -0.0733 
     14 C14        29.5281   -2.7260   -3.3849 C.ar      12 UNK        -0.0832 
     15 C15        29.1222   -4.6410   -4.9893 C.3       12 UNK         0.0240 
     16 S16        27.6896   -3.8690   -5.8046 S.3       12 UNK        -0.2522 
     17 C17        28.4044   -3.3262   -7.3960 C.3       12 UNK        -0.0967 
     18 CA         27.7112   -2.0780   -8.0051 C.3       5 UNK         0.0660 
     19 N          26.2529   -2.1234   -7.8739 N.am      5 UNK        -0.4015 
     20 C          25.3914   -1.2963   -8.4774 C.2       4 UNK         0.4946 
     21 O          25.7265   -0.4233   -9.2749 O.2       4 UNK        -0.5353 
     22 CA         23.9070   -1.4395   -8.1054 C.3       4 UNK         0.0277 
     23 CB         23.2075   -2.4140   -9.0660 C.3       4 UNK        -0.1981 
     24 N          23.6710   -1.8609   -6.7203 N.am      4 UNK        -0.4209 
     25 C          24.0642   -1.1925   -5.6257 C.2       3 UNK         0.4942 
     26 O          24.7164   -0.1452   -5.6671 O.2       3 UNK        -0.5208 
     27 CA         23.6111   -1.7975   -4.2812 C.3       3 UNK         0.0250 
     28 CB         23.9855   -3.2920   -4.1515 C.3       3 UNK        -0.1990 
     29 N          24.0641   -1.0417   -3.1057 N.am      3 UNK        -0.4232 
     30 C          25.3158   -0.9098   -2.6413 C.2       2 UNK         0.4993 
     31 O          26.3058   -1.4165   -3.1708 O.2       2 UNK        -0.5286 
     32 CA         25.5072   -0.0557   -1.3665 C.3       2 UNK         0.0209 
     33 CB         24.1926    0.2896   -0.6279 C.3       2 UNK        -0.1931 
     34 N          26.4733   -0.6482   -0.4290 N.am      2 UNK        -0.4546 
     35 C          26.4218   -1.8723    0.1183 C.2       1 UNK         0.5154 
     36 O          25.5077   -2.6793   -0.0782 O.2       1 UNK        -0.5181 
     37 C          28.3173   -0.7563   -7.4914 C.2       5 UNK         0.5014 
     38 O          29.2280   -0.2329   -8.1363 O.2       5 UNK        -0.5248 
     39 N          27.7872   -0.2084   -6.3878 N.am      6 UNK        -0.4434 
     40 CA         28.1754    1.1108   -5.8856 C.3       6 UNK         0.0363 
     41 CB         27.7274    1.2807   -4.4287 C.3       6 UNK        -0.1936 
     42 C          27.6091    2.2402   -6.7570 C.2       6 UNK         0.5081 
     43 O          28.3317    3.1934   -7.0442 O.2       6 UNK        -0.5248 
     44 N          26.3448    2.1047   -7.1856 N.am      7 UNK        -0.4718 
     45 CA         25.6511    3.0725   -8.0444 C.3       7 UNK         0.0273 
     46 CB         24.1696    2.6858   -8.1711 C.3       7 UNK        -0.1935 
     47 C          26.2975    3.2239   -9.4335 C.2       7 UNK         0.5018 
     48 O          26.4391    4.3473   -9.9173 O.2       7 UNK        -0.5186 
     49 N          26.7074    2.0969  -10.0309 N.am      8 UNK        -0.4240 
     50 CA         27.4474    2.0349  -11.2944 C.3       8 UNK         0.0235 
     51 CB         27.2916    0.6253  -11.8905 C.3       8 UNK        -0.2000 
     52 C          28.9409    2.3847  -11.1519 C.2       8 UNK         0.4941 
     53 O          29.6088    2.5446  -12.1743 O.2       8 UNK        -0.5273 
     54 N          29.4414    2.4694   -9.9089 N.am      9 UNK        -0.4262 
     55 CA         30.8404    2.6808   -9.5199 C.3       9 UNK         0.0264 
     56 CB         31.3245    4.0883   -9.9279 C.3       9 UNK        -0.1955 
     57 C          31.7732    1.5544  -10.0078 C.2       9 UNK         0.5031 
     58 O          32.9193    1.8160  -10.3798 O.2       9 UNK        -0.5390 
     59 N          31.2804    0.3075   -9.9611 N.am      10 UNK        -0.4204 
     60 CA         32.0118   -0.9070  -10.3413 C.3       10 UNK         0.0237 
     61 CB         31.0322   -2.0902  -10.4039 C.3       10 UNK        -0.1985 
     62 C          33.1848   -1.2229   -9.3959 C.2       10 UNK         0.4970 
     63 O          34.1284   -1.9001   -9.8044 O.2       10 UNK        -0.4914 
     64 N          33.1101   -0.7031   -8.1649 N.am      11 UNK        -0.4285 
     65 CA         34.1884   -0.6932   -7.1704 C.3       11 UNK         0.1007 
     66 C          35.3975    0.2221   -7.5399 C.2       11 UNK         0.5703 
     67 N          35.2905    1.1161   -8.5184 N.am      11 UNK        -0.7361 
     68 O          36.4622    0.1094   -6.9378 O.2       11 UNK        -0.4986 
     69 C69        33.6062   -0.3607   -5.7702 C.3       12 UNK        -0.0947 
     70 S70        34.5404   -1.1077   -4.3944 S.3       12 UNK        -0.2240 
     71 C71        33.7630   -2.7542   -4.2569 C.3       12 UNK         0.0194 
     72 H72        26.4522   -4.2428    4.9037 H         1 UNK         0.0906 
     73 H73        26.4894   -5.2590    3.4618 H         1 UNK         0.0906 
     74 H74        24.9965   -4.4397    3.9238 H         1 UNK         0.0906 
     75 H75        27.4497   -4.2607    1.7029 H         1 UNK         0.3140 
     76 H76        27.8620   -1.3871    1.6288 H         1 UNK         0.1085 
     77 H77        28.5869   -3.1257   -0.7569 H         1 UNK         0.0836 
     78 H78        29.4042   -3.4761    0.7272 H         1 UNK         0.0836 
     79 H79        28.7289   -0.6828   -1.9190 H         1 UNK         0.0731 
     80 H80        30.2607    0.1468   -1.8964 H         1 UNK         0.0731 
     81 H81        32.3906   -1.1497   -2.4824 H         1 UNK         0.1312 
     82 H82        31.8132   -4.3120   -5.3271 H         1 UNK         0.1406 
     83 H83        28.4679   -2.7284   -3.1715 H         1 UNK         0.1631 
     84 H84        28.7555   -5.3255   -4.2233 H         1 UNK         0.0717 
     85 H85        29.6633   -5.2528   -5.7129 H         1 UNK         0.0717 
     86 H86        29.4789   -3.1650   -7.2842 H         1 UNK         0.0934 
     87 H87        28.3085   -4.1619   -8.0909 H         1 UNK         0.0934 
     88 H88        27.9191   -2.0943   -9.0775 H         1 UNK         0.0739 
     89 H89        25.8963   -2.8028   -7.2173 H         1 UNK         0.3093 
     90 H90        23.4458   -0.4581   -8.2255 H         1 UNK         0.0818 
     91 H91        22.1326   -2.4466   -8.8870 H         1 UNK         0.0819 
     92 H92        23.3506   -2.1080  -10.1036 H         1 UNK         0.0819 
     93 H93        23.5965   -3.4284   -8.9692 H         1 UNK         0.0819 
     94 H94        23.1271   -2.7027   -6.5968 H         1 UNK         0.3041 
     95 H95        22.5224   -1.7272   -4.2695 H         1 UNK         0.0784 
     96 H96        23.4727   -3.9037   -4.8937 H         1 UNK         0.0793 
     97 H97        25.0559   -3.4556   -4.2794 H         1 UNK         0.0793 
     98 H98        23.7079   -3.6838   -3.1727 H         1 UNK         0.0793 
     99 H99        23.3351   -0.5529   -2.6062 H         1 UNK         0.3024 
    100 H100       25.9487    0.8820   -1.7079 H         1 UNK         0.1171 
    101 H101       23.5259    0.8852   -1.2526 H         1 UNK         0.0786 
    102 H102       24.3914    0.8800    0.2669 H         1 UNK         0.0786 
    103 H103       23.6523   -0.6052   -0.3157 H         1 UNK         0.0786 
    104 H104       27.2811   -0.0768   -0.2240 H         1 UNK         0.2977 
    105 H105       27.0196   -0.6714   -5.9166 H         1 UNK         0.3127 
    106 H106       29.2654    1.1805   -5.9097 H         1 UNK         0.0770 
    107 H107       28.1460    0.4970   -3.8012 H         1 UNK         0.0814 
    108 H108       26.6420    1.2474   -4.3329 H         1 UNK         0.0814 
    109 H109       28.0630    2.2368   -4.0253 H         1 UNK         0.0814 
    110 H110       25.8166    1.2947   -6.8790 H         1 UNK         0.2983 
    111 H111       25.7066    4.0445   -7.5494 H         1 UNK         0.0947 
    112 H112       23.6145    3.4520   -8.7141 H         1 UNK         0.0806 
    113 H113       23.6998    2.5749   -7.1935 H         1 UNK         0.0806 
    114 H114       24.0429    1.7500   -8.7144 H         1 UNK         0.0806 
    115 H115       26.4743    1.2028   -9.5991 H         1 UNK         0.3000 
    116 H116       27.0081    2.7531  -11.9900 H         1 UNK         0.0850 
    117 H117       27.7851    0.5512  -12.8606 H         1 UNK         0.0810 
    118 H118       26.2420    0.3717  -12.0408 H         1 UNK         0.0810 
    119 H119       27.7294   -0.1351  -11.2420 H         1 UNK         0.0810 
    120 H120       28.7997    2.3361   -9.1376 H         1 UNK         0.3040 
    121 H121       30.8572    2.6327   -8.4300 H         1 UNK         0.0766 
    122 H122       31.3947    4.1956  -11.0107 H         1 UNK         0.0812 
    123 H123       30.6517    4.8611   -9.5561 H         1 UNK         0.0812 
    124 H124       32.3133    4.2954   -9.5171 H         1 UNK         0.0812 
    125 H125       30.3687    0.1704   -9.5264 H         1 UNK         0.3205 
    126 H126       32.4265   -0.7484  -11.3389 H         1 UNK         0.0754 
    127 H127       31.5342   -2.9937  -10.7528 H         1 UNK         0.0769 
    128 H128       30.2098   -1.8901  -11.0912 H         1 UNK         0.0769 
    129 H129       30.6063   -2.3122   -9.4253 H         1 UNK         0.0769 
    130 H130       32.2844   -0.1750   -7.9273 H         1 UNK         0.2981 
    131 H131       34.5790   -1.7121   -7.1420 H         1 UNK         0.0541 
    132 H132       34.4362    1.2206   -9.0523 H         1 UNK         0.3459 
    133 H133       36.0882    1.6895   -8.7417 H         1 UNK         0.3459 
    134 H134       32.5727   -0.7015   -5.6948 H         1 UNK         0.0612 
    135 H135       33.5596    0.7186   -5.6134 H         1 UNK         0.0612 
    136 H136       33.9516   -3.2974   -5.1841 H         1 UNK         0.0624 
    137 H137       34.2673   -3.3101   -3.4657 H         1 UNK         0.0624 
@<TRIPOS>BOND
     1    1    2 1    
     2    1   72 1    
     3    1   73 1    
     4    1   74 1    
     5    2    3 2    
     6    2    4 am   BACKBONE|DICT|INTERRES
     7    4    5 1    
     8    4   75 1    
     9    5    6 1    
    10    5   35 1    
    11    5   76 1    
    12    6    7 1    
    13    6   77 1    
    14    6   78 1    
    15    7    8 1    
    16    8    9 1    
    17    8   79 1    
    18    8   80 1    
    19    9   10 ar   
    20    9   14 ar   
    21   10   11 ar   
    22   10   81 1    
    23   11   12 ar   
    24   11   71 1    
    25   12   13 ar   
    26   12   82 1    
    27   13   14 ar   
    28   13   15 1    
    29   14   83 1    
    30   15   16 1    
    31   15   84 1    
    32   15   85 1    
    33   16   17 1    
    34   17   18 1    
    35   17   86 1    
    36   17   87 1    
    37   18   19 1    
    38   18   37 1    
    39   18   88 1    
    40   19   20 am   BACKBONE|DICT|INTERRES
    41   19   89 1    
    42   20   21 2    
    43   20   22 1    
    44   22   23 1    
    45   22   24 1    
    46   22   90 1    
    47   23   91 1    
    48   23   92 1    
    49   23   93 1    
    50   24   25 am   BACKBONE|DICT|INTERRES
    51   24   94 1    
    52   25   26 2    
    53   25   27 1    
    54   27   28 1    
    55   27   29 1    
    56   27   95 1    
    57   28   96 1    
    58   28   97 1    
    59   28   98 1    
    60   29   30 am   BACKBONE|DICT|INTERRES
    61   29   99 1    
    62   30   31 2    
    63   30   32 1    
    64   32   33 1    
    65   32   34 1    
    66   32  100 1    
    67   33  101 1    
    68   33  102 1    
    69   33  103 1    
    70   34   35 am   BACKBONE|DICT|INTERRES
    71   34  104 1    
    72   35   36 2    
    73   37   38 2    
    74   37   39 am   BACKBONE|DICT|INTERRES
    75   39   40 1    
    76   39  105 1    
    77   40   41 1    
    78   40   42 1    
    79   40  106 1    
    80   41  107 1    
    81   41  108 1    
    82   41  109 1    
    83   42   43 2    
    84   42   44 am   BACKBONE|DICT|INTERRES
    85   44   45 1    
    86   44  110 1    
    87   45   46 1    
    88   45   47 1    
    89   45  111 1    
    90   46  112 1    
    91   46  113 1    
    92   46  114 1    
    93   47   48 2    
    94   47   49 am   BACKBONE|DICT|INTERRES
    95   49   50 1    
    96   49  115 1    
    97   50   51 1    
    98   50   52 1    
    99   50  116 1    
   100   51  117 1    
   101   51  118 1    
   102   51  119 1    
   103   52   53 2    
   104   52   54 am   BACKBONE|DICT|INTERRES
   105   54   55 1    
   106   54  120 1    
   107   55   56 1    
   108   55   57 1    
   109   55  121 1    
   110   56  122 1    
   111   56  123 1    
   112   56  124 1    
   113   57   58 2    
   114   57   59 am   BACKBONE|DICT|INTERRES
   115   59   60 1    
   116   59  125 1    
   117   60   61 1    
   118   60   62 1    
   119   60  126 1    
   120   61  127 1    
   121   61  128 1    
   122   61  129 1    
   123   62   63 2    
   124   62   64 am   BACKBONE|DICT|INTERRES
   125   64   65 1    
   126   64  130 1    
   127   65   66 1    
   128   65   69 1    
   129   65  131 1    
   130   66   67 am   BACKBONE|DICT|INTERRES
   131   66   68 2    
   132   67  132 1    
   133   67  133 1    
   134   69   70 1    
   135   69  134 1    
   136   69  135 1    
   137   70   71 1    
   138   71  136 1    
   139   71  137 1    
@<TRIPOS>SUBSTRUCTURE
     1 UNK         1 GROUP             0       ****    0 ROOT    
