@<TRIPOS>MOLECULE
3R137
137   139    1
SMALL
USER_CHARGES


@<TRIPOS>ATOM
      1 CA         29.9157   -1.6800    1.4923 C.3       0 UNK        -0.2020 
      2 C          30.6054   -1.1845    0.2232 C.2       0 UNK         0.4855 
      3 O          31.5326   -0.3840    0.3275 O.2       0 UNK        -0.5197 
      4 N          30.2247   -1.6218   -0.9865 N.am      1 UNK        -0.4892 
      5 CA         29.1275   -2.5287   -1.3575 C.3       1 UNK         0.0835 
      6 C6         29.2109   -3.9190   -0.6592 C.3       12 UNK        -0.0855 
      7 S7         28.5553   -5.2918   -1.6711 S.3       12 UNK        -0.2931 
      8 C8         30.0553   -5.8888   -2.5162 C.3       12 UNK         0.0378 
      9 C9         30.4907   -4.9133   -3.5974 C.ar      12 UNK        -0.0802 
     10 C10        31.5075   -3.9877   -3.3484 C.ar      12 UNK        -0.0944 
     11 C11        31.8562   -3.0469   -4.3198 C.ar      12 UNK        -0.0787 
     12 C12        31.1940   -3.0476   -5.5508 C.ar      12 UNK        -0.0862 
     13 C13        30.1837   -3.9754   -5.8207 C.ar      12 UNK        -0.0733 
     14 C14        29.8467   -4.9153   -4.8381 C.ar      12 UNK        -0.0832 
     15 C15        29.5002   -3.9412   -7.1879 C.3       12 UNK         0.0240 
     16 S16        27.7940   -4.5949   -7.2244 S.3       12 UNK        -0.2522 
     17 C17        26.8861   -3.3700   -6.2227 C.3       12 UNK        -0.0967 
     18 CA         26.2105   -2.2906   -7.1078 C.3       5 UNK         0.0660 
     19 N          24.9296   -1.8390   -6.5656 N.am      5 UNK        -0.4015 
     20 C          23.9343   -1.3286   -7.3057 C.2       4 UNK         0.4946 
     21 O          23.9574   -1.2635   -8.5351 O.2       4 UNK        -0.5353 
     22 CA         22.7054   -0.7841   -6.5546 C.3       4 UNK         0.0277 
     23 CB         21.6302   -1.8747   -6.4218 C.3       4 UNK        -0.1981 
     24 N          23.0215   -0.2496   -5.2276 N.am      4 UNK        -0.4209 
     25 C          23.7803    0.8332   -5.0066 C.2       3 UNK         0.4942 
     26 O          24.2664    1.5233   -5.9010 O.2       3 UNK        -0.5208 
     27 CA         24.0985    1.1677   -3.5396 C.3       3 UNK         0.0250 
     28 CB         22.9857    2.0371   -2.9330 C.3       3 UNK        -0.1990 
     29 N          24.3251   -0.0079   -2.6889 N.am      3 UNK        -0.4232 
     30 C          25.2383   -0.9628   -2.9157 C.2       2 UNK         0.4993 
     31 O          25.9451   -1.0158   -3.9267 O.2       2 UNK        -0.5286 
     32 CA         25.3386   -2.0812   -1.8670 C.3       2 UNK         0.0209 
     33 CB         24.4238   -3.2541   -2.2555 C.3       2 UNK        -0.1931 
     34 N          26.7114   -2.5726   -1.7410 N.am      2 UNK        -0.4546 
     35 C          27.7378   -1.8615   -1.2588 C.2       1 UNK         0.5154 
     36 O          27.6117   -0.7343   -0.7724 O.2       1 UNK        -0.5181 
     37 C          27.1330   -1.0834   -7.3402 C.2       5 UNK         0.5014 
     38 O          27.6915   -0.9538   -8.4285 O.2       5 UNK        -0.5248 
     39 N          27.2380   -0.1978   -6.3372 N.am      6 UNK        -0.4434 
     40 CA         28.0547    1.0202   -6.3717 C.3       6 UNK         0.0363 
     41 CB         27.9966    1.7148   -5.0034 C.3       6 UNK        -0.1936 
     42 C          27.6711    1.9994   -7.4975 C.2       6 UNK         0.5081 
     43 O          28.5443    2.6879   -8.0226 O.2       6 UNK        -0.5248 
     44 N          26.3854    2.0273   -7.8735 N.am      7 UNK        -0.4718 
     45 CA         25.8729    2.7707   -9.0266 C.3       7 UNK         0.0273 
     46 CB         24.3369    2.7913   -8.9688 C.3       7 UNK        -0.1935 
     47 C          26.3475    2.2154  -10.3838 C.2       7 UNK         0.5018 
     48 O          26.4104    2.9798  -11.3477 O.2       7 UNK        -0.5186 
     49 N          26.6564    0.9125  -10.4467 N.am      8 UNK        -0.4240 
     50 CA         27.1414    0.2306  -11.6473 C.3       8 UNK         0.0235 
     51 CB         26.5657   -1.1951  -11.6973 C.3       8 UNK        -0.2000 
     52 C          28.6761    0.2010  -11.6943 C.2       8 UNK         0.4941 
     53 O          29.2503    0.4752  -12.7491 O.2       8 UNK        -0.5273 
     54 N          29.3110   -0.1266  -10.5629 N.am      9 UNK        -0.4262 
     55 CA         30.7576   -0.2171  -10.4006 C.3       9 UNK         0.0264 
     56 CB         31.2061   -1.6783  -10.5915 C.3       9 UNK        -0.1955 
     57 C          31.1115    0.3176   -9.0101 C.2       9 UNK         0.5031 
     58 O          30.9769   -0.4122   -8.0267 O.2       9 UNK        -0.5390 
     59 N          31.5233    1.5904   -8.9504 N.am      10 UNK        -0.4204 
     60 CA         31.8951    2.2906   -7.7187 C.3       10 UNK         0.0237 
     61 CB         32.1045    3.7821   -8.0270 C.3       10 UNK        -0.1985 
     62 C          33.1491    1.6923   -7.0612 C.2       10 UNK         0.4970 
     63 O          34.0796    1.2921   -7.7653 O.2       10 UNK        -0.4914 
     64 N          33.1516    1.6691   -5.7245 N.am      11 UNK        -0.4285 
     65 CA         34.2208    1.0839   -4.8995 C.3       11 UNK         0.1007 
     66 C          35.4949    1.9667   -4.7577 C.2       11 UNK         0.5703 
     67 N          35.4991    3.2129   -5.2165 N.am      11 UNK        -0.7361 
     68 O          36.5041    1.5069   -4.2284 O.2       11 UNK        -0.4986 
     69 C69        33.6947    0.6287   -3.5100 C.3       12 UNK        -0.0947 
     70 S70        32.2012   -0.4154   -3.6036 S.3       12 UNK        -0.2240 
     71 C71        32.9374   -2.0178   -4.0409 C.3       12 UNK         0.0194 
     72 H72        30.1281   -1.0070    2.3227 H         1 UNK         0.0906 
     73 H73        28.8339   -1.7249    1.3860 H         1 UNK         0.0906 
     74 H74        30.2855   -2.6677    1.7651 H         1 UNK         0.0906 
     75 H75        30.7166   -1.2360   -1.7825 H         1 UNK         0.3140 
     76 H76        29.2729   -2.6789   -2.4278 H         1 UNK         0.1085 
     77 H77        30.2465   -4.1555   -0.4101 H         1 UNK         0.0836 
     78 H78        28.6761   -3.9162    0.2919 H         1 UNK         0.0836 
     79 H79        30.8539   -6.0535   -1.7911 H         1 UNK         0.0731 
     80 H80        29.8460   -6.8614   -2.9643 H         1 UNK         0.0731 
     81 H81        32.0057   -3.9795   -2.3884 H         1 UNK         0.1312 
     82 H82        31.4635   -2.3135   -6.2987 H         1 UNK         0.1406 
     83 H83        29.0681   -5.6422   -5.0226 H         1 UNK         0.1631 
     84 H84        29.4901   -2.9211   -7.5751 H         1 UNK         0.0717 
     85 H85        30.1040   -4.5245   -7.8839 H         1 UNK         0.0717 
     86 H86        26.1271   -3.9310   -5.6751 H         1 UNK         0.0934 
     87 H87        27.5328   -2.9395   -5.4547 H         1 UNK         0.0934 
     88 H88        26.0055   -2.7323   -8.0861 H         1 UNK         0.0739 
     89 H89        24.8721   -1.7766   -5.5568 H         1 UNK         0.3093 
     90 H90        22.2938    0.0320   -7.1528 H         1 UNK         0.0818 
     91 H91        20.7190   -1.4816   -5.9704 H         1 UNK         0.0819 
     92 H92        21.3578   -2.2740   -7.4000 H         1 UNK         0.0819 
     93 H93        21.9743   -2.7117   -5.8129 H         1 UNK         0.0819 
     94 H94        22.6595   -0.7527   -4.4306 H         1 UNK         0.3041 
     95 H95        25.0210    1.7502   -3.5327 H         1 UNK         0.0784 
     96 H96        22.8122    2.9275   -3.5394 H         1 UNK         0.0793 
     97 H97        22.0397    1.4982   -2.8674 H         1 UNK         0.0793 
     98 H98        23.2490    2.3779   -1.9314 H         1 UNK         0.0793 
     99 H99        23.7742   -0.0572   -1.8435 H         1 UNK         0.3024 
    100 H100       25.0272   -1.6885   -0.8962 H         1 UNK         0.1171 
    101 H101       24.4629   -4.0502   -1.5116 H         1 UNK         0.0786 
    102 H102       23.3835   -2.9344   -2.3296 H         1 UNK         0.0786 
    103 H103       24.7033   -3.6830   -3.2190 H         1 UNK         0.0786 
    104 H104       26.9034   -3.4919   -2.1165 H         1 UNK         0.2977 
    105 H105       26.7511   -0.3961   -5.4644 H         1 UNK         0.3127 
    106 H106       29.0848    0.7073   -6.5475 H         1 UNK         0.0770 
    107 H107       26.9911    2.0699   -4.7790 H         1 UNK         0.0814 
    108 H108       28.6610    2.5795   -4.9783 H         1 UNK         0.0814 
    109 H109       28.3050    1.0435   -4.2013 H         1 UNK         0.0814 
    110 H110       25.7052    1.5177   -7.3176 H         1 UNK         0.2983 
    111 H111       26.2334    3.7990   -8.9519 H         1 UNK         0.0947 
    112 H112       23.9191    3.3410   -9.8134 H         1 UNK         0.0806 
    113 H113       23.9815    3.2768   -8.0598 H         1 UNK         0.0806 
    114 H114       23.9201    1.7833   -8.9944 H         1 UNK         0.0806 
    115 H115       26.6421    0.3657   -9.5930 H         1 UNK         0.3000 
    116 H116       26.7901    0.7600  -12.5359 H         1 UNK         0.0850 
    117 H117       26.8888   -1.7134  -12.6011 H         1 UNK         0.0810 
    118 H118       25.4756   -1.1808  -11.7030 H         1 UNK         0.0810 
    119 H119       26.8851   -1.7967  -10.8457 H         1 UNK         0.0810 
    120 H120       28.7618   -0.3525   -9.7319 H         1 UNK         0.3040 
    121 H121       31.2633    0.3993  -11.1471 H         1 UNK         0.0766 
    122 H122       31.0019   -2.0251  -11.6045 H         1 UNK         0.0812 
    123 H123       30.6968   -2.3506   -9.8996 H         1 UNK         0.0812 
    124 H124       32.2782   -1.7823  -10.4202 H         1 UNK         0.0812 
    125 H125       31.6038    2.1159   -9.8082 H         1 UNK         0.3205 
    126 H126       31.0595    2.1964   -7.0223 H         1 UNK         0.0754 
    127 H127       32.3492    4.3394   -7.1219 H         1 UNK         0.0769 
    128 H128       31.2013    4.2288   -8.4442 H         1 UNK         0.0769 
    129 H129       32.9178    3.9381   -8.7372 H         1 UNK         0.0769 
    130 H130       32.3550    2.0267   -5.2191 H         1 UNK         0.2981 
    131 H131       34.5621    0.1857   -5.4167 H         1 UNK         0.0541 
    132 H132       34.6799    3.5981   -5.6571 H         1 UNK         0.3459 
    133 H133       36.3331    3.7709   -5.1221 H         1 UNK         0.3459 
    134 H134       33.4497    1.4980   -2.8973 H         1 UNK         0.0612 
    135 H135       34.4657    0.0811   -2.9645 H         1 UNK         0.0612 
    136 H136       33.5896   -2.3504   -3.2318 H         1 UNK         0.0624 
    137 H137       33.5662   -1.9064   -4.9249 H         1 UNK         0.0624 
@<TRIPOS>BOND
     1    1    2 1    
     2    1   72 1    
     3    1   73 1    
     4    1   74 1    
     5    2    3 2    
     6    2    4 am   BACKBONE|DICT|INTERRES
     7    4    5 1    
     8    4   75 1    
     9    5    6 1    
    10    5   35 1    
    11    5   76 1    
    12    6    7 1    
    13    6   77 1    
    14    6   78 1    
    15    7    8 1    
    16    8    9 1    
    17    8   79 1    
    18    8   80 1    
    19    9   10 ar   
    20    9   14 ar   
    21   10   11 ar   
    22   10   81 1    
    23   11   12 ar   
    24   11   71 1    
    25   12   13 ar   
    26   12   82 1    
    27   13   14 ar   
    28   13   15 1    
    29   14   83 1    
    30   15   16 1    
    31   15   84 1    
    32   15   85 1    
    33   16   17 1    
    34   17   18 1    
    35   17   86 1    
    36   17   87 1    
    37   18   19 1    
    38   18   37 1    
    39   18   88 1    
    40   19   20 am   BACKBONE|DICT|INTERRES
    41   19   89 1    
    42   20   21 2    
    43   20   22 1    
    44   22   23 1    
    45   22   24 1    
    46   22   90 1    
    47   23   91 1    
    48   23   92 1    
    49   23   93 1    
    50   24   25 am   BACKBONE|DICT|INTERRES
    51   24   94 1    
    52   25   26 2    
    53   25   27 1    
    54   27   28 1    
    55   27   29 1    
    56   27   95 1    
    57   28   96 1    
    58   28   97 1    
    59   28   98 1    
    60   29   30 am   BACKBONE|DICT|INTERRES
    61   29   99 1    
    62   30   31 2    
    63   30   32 1    
    64   32   33 1    
    65   32   34 1    
    66   32  100 1    
    67   33  101 1    
    68   33  102 1    
    69   33  103 1    
    70   34   35 am   BACKBONE|DICT|INTERRES
    71   34  104 1    
    72   35   36 2    
    73   37   38 2    
    74   37   39 am   BACKBONE|DICT|INTERRES
    75   39   40 1    
    76   39  105 1    
    77   40   41 1    
    78   40   42 1    
    79   40  106 1    
    80   41  107 1    
    81   41  108 1    
    82   41  109 1    
    83   42   43 2    
    84   42   44 am   BACKBONE|DICT|INTERRES
    85   44   45 1    
    86   44  110 1    
    87   45   46 1    
    88   45   47 1    
    89   45  111 1    
    90   46  112 1    
    91   46  113 1    
    92   46  114 1    
    93   47   48 2    
    94   47   49 am   BACKBONE|DICT|INTERRES
    95   49   50 1    
    96   49  115 1    
    97   50   51 1    
    98   50   52 1    
    99   50  116 1    
   100   51  117 1    
   101   51  118 1    
   102   51  119 1    
   103   52   53 2    
   104   52   54 am   BACKBONE|DICT|INTERRES
   105   54   55 1    
   106   54  120 1    
   107   55   56 1    
   108   55   57 1    
   109   55  121 1    
   110   56  122 1    
   111   56  123 1    
   112   56  124 1    
   113   57   58 2    
   114   57   59 am   BACKBONE|DICT|INTERRES
   115   59   60 1    
   116   59  125 1    
   117   60   61 1    
   118   60   62 1    
   119   60  126 1    
   120   61  127 1    
   121   61  128 1    
   122   61  129 1    
   123   62   63 2    
   124   62   64 am   BACKBONE|DICT|INTERRES
   125   64   65 1    
   126   64  130 1    
   127   65   66 1    
   128   65   69 1    
   129   65  131 1    
   130   66   67 am   BACKBONE|DICT|INTERRES
   131   66   68 2    
   132   67  132 1    
   133   67  133 1    
   134   69   70 1    
   135   69  134 1    
   136   69  135 1    
   137   70   71 1    
   138   71  136 1    
   139   71  137 1    
@<TRIPOS>SUBSTRUCTURE
     1 UNK         1 GROUP             0       ****    0 ROOT    
