@<TRIPOS>MOLECULE
3R137
137   139    1
SMALL
USER_CHARGES


@<TRIPOS>ATOM
      1 CA         26.5022   -3.8665   -8.7074 C.3       0 UNK        -0.2020 
      2 C          26.2085   -4.5675   -7.3906 C.2       0 UNK         0.4855 
      3 O          25.0910   -5.0403   -7.1821 O.2       0 UNK        -0.5197 
      4 N          27.2071   -4.6427   -6.5054 N.am      1 UNK        -0.4892 
      5 CA         27.0941   -5.2029   -5.1570 C.3       1 UNK         0.0835 
      6 C6         28.4477   -5.7903   -4.6779 C.3       12 UNK        -0.0855 
      7 S7         29.8446   -4.6103   -4.7355 S.3       12 UNK        -0.2931 
      8 C8         30.1887   -4.3152   -2.9709 C.3       12 UNK         0.0378 
      9 C9         30.2712   -2.8275   -2.6662 C.ar      12 UNK        -0.0802 
     10 C10        31.3630   -2.0785   -3.1155 C.ar      12 UNK        -0.0944 
     11 C11        31.4490   -0.7124   -2.8340 C.ar      12 UNK        -0.0787 
     12 C12        30.4390   -0.0972   -2.0897 C.ar      12 UNK        -0.0862 
     13 C13        29.3409   -0.8347   -1.6362 C.ar      12 UNK        -0.0733 
     14 C14        29.2641   -2.2003   -1.9260 C.ar      12 UNK        -0.0832 
     15 C15        28.2423   -0.1555   -0.8287 C.3       12 UNK         0.0240 
     16 S16        26.7270    0.1143   -1.8050 S.3       12 UNK        -0.2522 
     17 C17        27.3353    1.1581   -3.1767 C.3       12 UNK        -0.0967 
     18 CA         27.4503    0.3409   -4.4958 C.3       5 UNK         0.0660 
     19 N          26.1577   -0.2005   -4.9254 N.am      5 UNK        -0.4015 
     20 C          25.1295    0.4945   -5.4355 C.2       4 UNK         0.4946 
     21 O          25.1613    1.7017   -5.6809 O.2       4 UNK        -0.5353 
     22 CA         23.8242   -0.2850   -5.6595 C.3       4 UNK         0.0277 
     23 CB         23.9765   -1.3356   -6.7710 C.3       4 UNK        -0.1981 
     24 N          23.3847   -0.9285   -4.4212 N.am      4 UNK        -0.4209 
     25 C          22.8969   -0.2820   -3.3536 C.2       3 UNK         0.4942 
     26 O          22.6209    0.9181   -3.3506 O.2       3 UNK        -0.5208 
     27 CA         22.7055   -1.0880   -2.0547 C.3       3 UNK         0.0250 
     28 CB         21.3218   -1.7667   -2.0074 C.3       3 UNK        -0.1990 
     29 N          23.7996   -2.0298   -1.7698 N.am      3 UNK        -0.4232 
     30 C          24.1237   -3.1547   -2.4214 C.2       2 UNK         0.4993 
     31 O          23.4684   -3.6249   -3.3546 O.2       2 UNK        -0.5286 
     32 CA         25.4142   -3.8524   -1.9586 C.3       2 UNK         0.0209 
     33 CB         25.1381   -4.7545   -0.7449 C.3       2 UNK        -0.1931 
     34 N          26.0365   -4.6541   -3.0171 N.am      2 UNK        -0.4546 
     35 C          26.5153   -4.1656   -4.1703 C.2       1 UNK         0.5154 
     36 O          26.5217   -2.9626   -4.4507 O.2       1 UNK        -0.5181 
     37 C          28.1704    1.0648   -5.6561 C.2       5 UNK         0.5014 
     38 O          28.1048    0.5868   -6.7913 O.2       5 UNK        -0.5248 
     39 N          28.8365    2.1950   -5.3789 N.am      6 UNK        -0.4434 
     40 CA         29.6739    2.9567   -6.3163 C.3       6 UNK         0.0363 
     41 CB         30.3846    4.0809   -5.5440 C.3       6 UNK        -0.1936 
     42 C          28.9588    3.5169   -7.5619 C.2       6 UNK         0.5081 
     43 O          29.6363    3.9807   -8.4797 O.2       6 UNK        -0.5248 
     44 N          27.6205    3.4597   -7.5979 N.am      7 UNK        -0.4718 
     45 CA         26.8184    3.7633   -8.7839 C.3       7 UNK         0.0273 
     46 CB         25.3579    3.9901   -8.3618 C.3       7 UNK        -0.1935 
     47 C          26.9015    2.6696   -9.8677 C.2       7 UNK         0.5018 
     48 O          26.5555    2.9554  -11.0152 O.2       7 UNK        -0.5186 
     49 N          27.3341    1.4527   -9.5027 N.am      8 UNK        -0.4240 
     50 CA         27.4272    0.3039  -10.4071 C.3       8 UNK         0.0235 
     51 CB         26.1871   -0.5854  -10.2267 C.3       8 UNK        -0.2000 
     52 C          28.7147   -0.5125  -10.2169 C.2       8 UNK         0.4941 
     53 O          29.2616   -0.9940  -11.2104 O.2       8 UNK        -0.5273 
     54 N          29.1742   -0.6807   -8.9699 N.am      9 UNK        -0.4262 
     55 CA         30.3937   -1.4130   -8.6294 C.3       9 UNK         0.0264 
     56 CB         30.3397   -1.8175   -7.1470 C.3       9 UNK        -0.1955 
     57 C          31.6466   -0.5697   -8.9111 C.2       9 UNK         0.5031 
     58 O          31.6169    0.6557   -8.7661 O.2       9 UNK        -0.5390 
     59 N          32.7442   -1.2466   -9.2697 N.am      10 UNK        -0.4204 
     60 CA         34.0508   -0.6475   -9.5528 C.3       10 UNK         0.0237 
     61 CB         34.8403   -1.5894  -10.4822 C.3       10 UNK        -0.1985 
     62 C          34.8140   -0.3155   -8.2557 C.2       10 UNK         0.4970 
     63 O          35.8639   -0.9030   -7.9882 O.2       10 UNK        -0.4914 
     64 N          34.2571    0.6070   -7.4637 N.am      11 UNK        -0.4285 
     65 CA         34.8123    1.0675   -6.1796 C.3       11 UNK         0.1007 
     66 C          36.0940    1.9438   -6.2972 C.2       11 UNK         0.5703 
     67 N          36.4499    2.4534   -7.4709 N.am      11 UNK        -0.7361 
     68 O          36.7826    2.1591   -5.3025 O.2       11 UNK        -0.4986 
     69 C69        33.7415    1.7787   -5.3123 C.3       12 UNK        -0.0947 
     70 S70        32.2764    0.7407   -5.0056 S.3       12 UNK        -0.2240 
     71 C71        32.6250    0.1030   -3.3435 C.3       12 UNK         0.0194 
     72 H72        27.3392   -3.1741   -8.6181 H         1 UNK         0.0906 
     73 H73        26.7408   -4.5986   -9.4784 H         1 UNK         0.0906 
     74 H74        25.6282   -3.3039   -9.0335 H         1 UNK         0.0906 
     75 H75        28.0972   -4.2092   -6.7045 H         1 UNK         0.3140 
     76 H76        26.3788   -6.0281   -5.1947 H         1 UNK         0.1085 
     77 H77        28.3533   -6.2280   -3.6831 H         1 UNK         0.0836 
     78 H78        28.7134   -6.6281   -5.3246 H         1 UNK         0.0836 
     79 H79        29.4290   -4.7831   -2.3438 H         1 UNK         0.0731 
     80 H80        31.1337   -4.7935   -2.7095 H         1 UNK         0.0731 
     81 H81        32.1392   -2.5580   -3.6963 H         1 UNK         0.1312 
     82 H82        30.5067    0.9598   -1.8712 H         1 UNK         0.1406 
     83 H83        28.4182   -2.7735   -1.5758 H         1 UNK         0.1631 
     84 H84        28.5875    0.8011   -0.4333 H         1 UNK         0.0717 
     85 H85        27.9975   -0.7708    0.0382 H         1 UNK         0.0717 
     86 H86        26.6492    1.9979   -3.3017 H         1 UNK         0.0934 
     87 H87        28.2914    1.5881   -2.8794 H         1 UNK         0.0934 
     88 H88        28.0754   -0.5298   -4.2900 H         1 UNK         0.0739 
     89 H89        26.0662   -1.2055   -4.7904 H         1 UNK         0.3093 
     90 H90        23.0550    0.4261   -5.9684 H         1 UNK         0.0818 
     91 H91        23.0384   -1.8608   -6.9509 H         1 UNK         0.0819 
     92 H92        24.2671   -0.8642   -7.7096 H         1 UNK         0.0819 
     93 H93        24.7330   -2.0817   -6.5266 H         1 UNK         0.0819 
     94 H94        23.5488   -1.9267   -4.3253 H         1 UNK         0.3041 
     95 H95        22.7350   -0.3636   -1.2389 H         1 UNK         0.0784 
     96 H96        20.5259   -1.0250   -2.0860 H         1 UNK         0.0793 
     97 H97        21.1814   -2.4744   -2.8246 H         1 UNK         0.0793 
     98 H98        21.1744   -2.3023   -1.0696 H         1 UNK         0.0793 
     99 H99        24.4249   -1.7231   -1.0367 H         1 UNK         0.3024 
    100 H100       26.1264   -3.0777   -1.6692 H         1 UNK         0.1171 
    101 H101       24.7054   -4.1852    0.0791 H         1 UNK         0.0786 
    102 H102       26.0550   -5.2115   -0.3720 H         1 UNK         0.0786 
    103 H103       24.4381   -5.5548   -0.9893 H         1 UNK         0.0786 
    104 H104       26.0373   -5.6534   -2.8750 H         1 UNK         0.2977 
    105 H105       28.8173    2.5406   -4.4316 H         1 UNK         0.3127 
    106 H106       30.4341    2.2711   -6.6952 H         1 UNK         0.0770 
    107 H107       29.6735    4.7933   -5.1243 H         1 UNK         0.0814 
    108 H108       31.0585    4.6383   -6.1961 H         1 UNK         0.0814 
    109 H109       30.9882    3.6832   -4.7280 H         1 UNK         0.0814 
    110 H110       27.1328    3.0507   -6.8115 H         1 UNK         0.2983 
    111 H111       27.1929    4.6896   -9.2257 H         1 UNK         0.0947 
    112 H112       24.7492    4.2941   -9.2144 H         1 UNK         0.0806 
    113 H113       25.2766    4.7753   -7.6100 H         1 UNK         0.0806 
    114 H114       24.9111    3.0838   -7.9521 H         1 UNK         0.0806 
    115 H115       27.6089    1.3033   -8.5359 H         1 UNK         0.3000 
    116 H116       27.4435    0.6533  -11.4419 H         1 UNK         0.0850 
    117 H117       26.2359   -1.4652  -10.8697 H         1 UNK         0.0810 
    118 H118       26.0987   -0.9302   -9.1970 H         1 UNK         0.0810 
    119 H119       25.2733   -0.0477  -10.4800 H         1 UNK         0.0810 
    120 H120       28.7065   -0.2235   -8.1876 H         1 UNK         0.3040 
    121 H121       30.4315   -2.3216   -9.2343 H         1 UNK         0.0766 
    122 H122       30.3487   -0.9470   -6.4915 H         1 UNK         0.0812 
    123 H123       31.1959   -2.4352   -6.8734 H         1 UNK         0.0812 
    124 H124       29.4400   -2.3888   -6.9210 H         1 UNK         0.0812 
    125 H125       32.6955   -2.2542   -9.3215 H         1 UNK         0.3205 
    126 H126       33.8995    0.2922  -10.0889 H         1 UNK         0.0754 
    127 H127       35.8119   -1.1632  -10.7363 H         1 UNK         0.0769 
    128 H128       34.3090   -1.7584  -11.4191 H         1 UNK         0.0769 
    129 H129       35.0208   -2.5603  -10.0189 H         1 UNK         0.0769 
    130 H130       33.3595    0.9928   -7.7377 H         1 UNK         0.2981 
    131 H131       35.1218    0.1741   -5.6338 H         1 UNK         0.0541 
    132 H132       35.8909    2.2862   -8.2917 H         1 UNK         0.3459 
    133 H133       37.2844    3.0150   -7.5327 H         1 UNK         0.3459 
    134 H134       33.4042    2.6923   -5.8050 H         1 UNK         0.0612 
    135 H135       34.1602    2.0894   -4.3533 H         1 UNK         0.0612 
    136 H136       33.5286   -0.5078   -3.3708 H         1 UNK         0.0624 
    137 H137       32.8274    0.9344   -2.6665 H         1 UNK         0.0624 
@<TRIPOS>BOND
     1    1    2 1    
     2    1   72 1    
     3    1   73 1    
     4    1   74 1    
     5    2    3 2    
     6    2    4 am   BACKBONE|DICT|INTERRES
     7    4    5 1    
     8    4   75 1    
     9    5    6 1    
    10    5   35 1    
    11    5   76 1    
    12    6    7 1    
    13    6   77 1    
    14    6   78 1    
    15    7    8 1    
    16    8    9 1    
    17    8   79 1    
    18    8   80 1    
    19    9   10 ar   
    20    9   14 ar   
    21   10   11 ar   
    22   10   81 1    
    23   11   12 ar   
    24   11   71 1    
    25   12   13 ar   
    26   12   82 1    
    27   13   14 ar   
    28   13   15 1    
    29   14   83 1    
    30   15   16 1    
    31   15   84 1    
    32   15   85 1    
    33   16   17 1    
    34   17   18 1    
    35   17   86 1    
    36   17   87 1    
    37   18   19 1    
    38   18   37 1    
    39   18   88 1    
    40   19   20 am   BACKBONE|DICT|INTERRES
    41   19   89 1    
    42   20   21 2    
    43   20   22 1    
    44   22   23 1    
    45   22   24 1    
    46   22   90 1    
    47   23   91 1    
    48   23   92 1    
    49   23   93 1    
    50   24   25 am   BACKBONE|DICT|INTERRES
    51   24   94 1    
    52   25   26 2    
    53   25   27 1    
    54   27   28 1    
    55   27   29 1    
    56   27   95 1    
    57   28   96 1    
    58   28   97 1    
    59   28   98 1    
    60   29   30 am   BACKBONE|DICT|INTERRES
    61   29   99 1    
    62   30   31 2    
    63   30   32 1    
    64   32   33 1    
    65   32   34 1    
    66   32  100 1    
    67   33  101 1    
    68   33  102 1    
    69   33  103 1    
    70   34   35 am   BACKBONE|DICT|INTERRES
    71   34  104 1    
    72   35   36 2    
    73   37   38 2    
    74   37   39 am   BACKBONE|DICT|INTERRES
    75   39   40 1    
    76   39  105 1    
    77   40   41 1    
    78   40   42 1    
    79   40  106 1    
    80   41  107 1    
    81   41  108 1    
    82   41  109 1    
    83   42   43 2    
    84   42   44 am   BACKBONE|DICT|INTERRES
    85   44   45 1    
    86   44  110 1    
    87   45   46 1    
    88   45   47 1    
    89   45  111 1    
    90   46  112 1    
    91   46  113 1    
    92   46  114 1    
    93   47   48 2    
    94   47   49 am   BACKBONE|DICT|INTERRES
    95   49   50 1    
    96   49  115 1    
    97   50   51 1    
    98   50   52 1    
    99   50  116 1    
   100   51  117 1    
   101   51  118 1    
   102   51  119 1    
   103   52   53 2    
   104   52   54 am   BACKBONE|DICT|INTERRES
   105   54   55 1    
   106   54  120 1    
   107   55   56 1    
   108   55   57 1    
   109   55  121 1    
   110   56  122 1    
   111   56  123 1    
   112   56  124 1    
   113   57   58 2    
   114   57   59 am   BACKBONE|DICT|INTERRES
   115   59   60 1    
   116   59  125 1    
   117   60   61 1    
   118   60   62 1    
   119   60  126 1    
   120   61  127 1    
   121   61  128 1    
   122   61  129 1    
   123   62   63 2    
   124   62   64 am   BACKBONE|DICT|INTERRES
   125   64   65 1    
   126   64  130 1    
   127   65   66 1    
   128   65   69 1    
   129   65  131 1    
   130   66   67 am   BACKBONE|DICT|INTERRES
   131   66   68 2    
   132   67  132 1    
   133   67  133 1    
   134   69   70 1    
   135   69  134 1    
   136   69  135 1    
   137   70   71 1    
   138   71  136 1    
   139   71  137 1    
@<TRIPOS>SUBSTRUCTURE
     1 UNK         1 GROUP             0       ****    0 ROOT    
