@<TRIPOS>MOLECULE
3R137
137   139    1
SMALL
USER_CHARGES


@<TRIPOS>ATOM
      1 CA         26.6696   -5.8006   -4.3087 C.3       0 UNK        -0.2020 
      2 C          28.0972   -5.2975   -4.1070 C.2       0 UNK         0.4855 
      3 O          28.9535   -5.5710   -4.9447 O.2       0 UNK        -0.5197 
      4 N          28.4118   -4.5737   -3.0240 N.am      1 UNK        -0.4892 
      5 CA         27.5283   -4.1256   -1.9374 C.3       1 UNK         0.0835 
      6 C6         28.3264   -3.5706   -0.7208 C.3       12 UNK        -0.0855 
      7 S7         29.8322   -4.5306   -0.3123 S.3       12 UNK        -0.2931 
      8 C8         31.1600   -3.2720   -0.3578 C.3       12 UNK         0.0378 
      9 C9         31.1220   -2.3873   -1.6002 C.ar      12 UNK        -0.0802 
     10 C10        31.3275   -2.9323   -2.8717 C.ar      12 UNK        -0.0944 
     11 C11        31.2488   -2.1243   -4.0108 C.ar      12 UNK        -0.0787 
     12 C12        30.9697   -0.7622   -3.8716 C.ar      12 UNK        -0.0862 
     13 C13        30.8020   -0.1974   -2.6044 C.ar      12 UNK        -0.0733 
     14 C14        30.8791   -1.0148   -1.4731 C.ar      12 UNK        -0.0832 
     15 C15        30.5516    1.2991   -2.4620 C.3       12 UNK         0.0240 
     16 S16        28.9209    1.6986   -1.7459 S.3       12 UNK        -0.2522 
     17 C17        27.7734    0.6562   -2.7073 C.3       12 UNK        -0.0967 
     18 CA         27.6977    0.9918   -4.2178 C.3       5 UNK         0.0660 
     19 N          27.2436   -0.1707   -4.9872 N.am      5 UNK        -0.4015 
     20 C          27.0398   -0.2542   -6.3104 C.2       4 UNK         0.4946 
     21 O          27.0888    0.7004   -7.0837 O.2       4 UNK        -0.5353 
     22 CA         26.6817   -1.6432   -6.8498 C.3       4 UNK         0.0277 
     23 CB         27.8920   -2.5906   -6.7669 C.3       4 UNK        -0.1981 
     24 N          25.5619   -2.1968   -6.0912 N.am      4 UNK        -0.4209 
     25 C          24.2722   -2.0116   -6.4039 C.2       3 UNK         0.4942 
     26 O          23.8878   -1.4629   -7.4371 O.2       3 UNK        -0.5208 
     27 CA         23.2230   -2.5147   -5.3941 C.3       3 UNK         0.0250 
     28 CB         22.7488   -3.9271   -5.7739 C.3       3 UNK        -0.1990 
     29 N          23.6806   -2.5189   -4.0008 N.am      3 UNK        -0.4232 
     30 C          24.0302   -1.4301   -3.3008 C.2       2 UNK         0.4993 
     31 O          24.0230   -0.2838   -3.7522 O.2       2 UNK        -0.5286 
     32 CA         24.5318   -1.6731   -1.8657 C.3       2 UNK         0.0209 
     33 CB         23.3440   -1.8321   -0.9029 C.3       2 UNK        -0.1931 
     34 N          25.4572   -2.8071   -1.6958 N.am      2 UNK        -0.4546 
     35 C          26.5474   -3.0466   -2.4397 C.2       1 UNK         0.5154 
     36 O          26.8146   -2.4258   -3.4704 O.2       1 UNK        -0.5181 
     37 C          26.8964    2.2815   -4.4782 C.2       5 UNK         0.5014 
     38 O          27.4941    3.3583   -4.4943 O.2       5 UNK        -0.5248 
     39 N          25.5896    2.1492   -4.7537 N.am      6 UNK        -0.4434 
     40 CA         24.6888    3.2287   -5.1730 C.3       6 UNK         0.0363 
     41 CB         23.2956    2.6373   -5.4418 C.3       6 UNK        -0.1936 
     42 C          25.1642    4.0468   -6.3940 C.2       6 UNK         0.5081 
     43 O          24.7853    5.2135   -6.5057 O.2       6 UNK        -0.5248 
     44 N          25.9840    3.4489   -7.2703 N.am      7 UNK        -0.4718 
     45 CA         26.6040    4.1134   -8.4210 C.3       7 UNK         0.0273 
     46 CB         25.7889    3.7814   -9.6854 C.3       7 UNK        -0.1935 
     47 C          28.0877    3.7296   -8.5802 C.2       7 UNK         0.5018 
     48 O          28.6425    3.9264   -9.6630 O.2       7 UNK        -0.5186 
     49 N          28.6950    3.1449   -7.5345 N.am      8 UNK        -0.4240 
     50 CA         30.0030    2.4657   -7.4751 C.3       8 UNK         0.0235 
     51 CB         31.1670    3.4344   -7.7545 C.3       8 UNK        -0.2000 
     52 C          30.1019    1.2020   -8.3565 C.2       8 UNK         0.4941 
     53 O          30.5516    0.1617   -7.8700 O.2       8 UNK        -0.5273 
     54 N          29.6626    1.3130   -9.6186 N.am      9 UNK        -0.4262 
     55 CA         29.5414    0.2719  -10.6407 C.3       9 UNK         0.0264 
     56 CB         28.3399   -0.6435  -10.3166 C.3       9 UNK        -0.1955 
     57 C          30.8712   -0.4708  -10.8584 C.2       9 UNK         0.5031 
     58 O          31.8521    0.1634  -11.2528 O.2       9 UNK        -0.5390 
     59 N          30.8972   -1.7797  -10.5723 N.am      10 UNK        -0.4204 
     60 CA         32.0712   -2.6526  -10.6675 C.3       10 UNK         0.0237 
     61 CB         31.6501   -4.0944  -10.3384 C.3       10 UNK        -0.1985 
     62 C          33.2567   -2.2275   -9.7799 C.2       10 UNK         0.4970 
     63 O          34.3935   -2.5709  -10.1074 O.2       10 UNK        -0.4914 
     64 N          32.9800   -1.4925   -8.6956 N.am      11 UNK        -0.4285 
     65 CA         33.9888   -0.9183   -7.7951 C.3       11 UNK         0.1007 
     66 C          34.3892    0.5384   -8.1731 C.2       11 UNK         0.5703 
     67 N          33.8681    1.1285   -9.2442 N.am      11 UNK        -0.7361 
     68 O          35.2106    1.1449   -7.4896 O.2       11 UNK        -0.4986 
     69 C69        33.5556   -1.0331   -6.3108 C.3       12 UNK        -0.0947 
     70 S70        33.2461   -2.7627   -5.8070 S.3       12 UNK        -0.2240 
     71 C71        31.4753   -2.7228   -5.3905 C.3       12 UNK         0.0194 
     72 H72        26.0222   -4.9923   -4.6453 H         1 UNK         0.0906 
     73 H73        26.6492   -6.5784   -5.0718 H         1 UNK         0.0906 
     74 H74        26.2577   -6.2312   -3.3973 H         1 UNK         0.0906 
     75 H75        29.3606   -4.2406   -2.9345 H         1 UNK         0.3140 
     76 H76        26.9514   -4.9865   -1.5958 H         1 UNK         0.1085 
     77 H77        27.6897   -3.5662    0.1658 H         1 UNK         0.0836 
     78 H78        28.5983   -2.5259   -0.8761 H         1 UNK         0.0836 
     79 H79        32.1256   -3.7772   -0.3099 H         1 UNK         0.0731 
     80 H80        31.0905   -2.6660    0.5469 H         1 UNK         0.0731 
     81 H81        31.5430   -3.9873   -2.9751 H         1 UNK         0.1312 
     82 H82        30.8989   -0.1387   -4.7520 H         1 UNK         0.1406 
     83 H83        30.7348   -0.5784   -0.4938 H         1 UNK         0.1631 
     84 H84        30.6493    1.8035   -3.4243 H         1 UNK         0.0717 
     85 H85        31.3252    1.7268   -1.8228 H         1 UNK         0.0717 
     86 H86        28.0966   -0.3744   -2.5621 H         1 UNK         0.0934 
     87 H87        26.7853    0.7149   -2.2488 H         1 UNK         0.0934 
     88 H88        28.7071    1.1808   -4.5825 H         1 UNK         0.0739 
     89 H89        27.1326   -1.0268   -4.4442 H         1 UNK         0.3093 
     90 H90        26.4037   -1.5390   -7.9009 H         1 UNK         0.0818 
     91 H91        27.6635   -3.5651   -7.1984 H         1 UNK         0.0819 
     92 H92        28.7452   -2.1850   -7.3106 H         1 UNK         0.0819 
     93 H93        28.2198   -2.7513   -5.7397 H         1 UNK         0.0819 
     94 H94        25.7870   -2.5901   -5.1846 H         1 UNK         0.3041 
     95 H95        22.3676   -1.8385   -5.4550 H         1 UNK         0.0784 
     96 H96        22.3738   -3.9501   -6.7983 H         1 UNK         0.0793 
     97 H97        23.5563   -4.6573   -5.7068 H         1 UNK         0.0793 
     98 H98        21.9371   -4.2615   -5.1275 H         1 UNK         0.0793 
     99 H99        23.7285   -3.4151   -3.5387 H         1 UNK         0.3024 
    100 H100       25.0771   -0.7752   -1.5706 H         1 UNK         0.1171 
    101 H101       23.6742   -1.8537    0.1359 H         1 UNK         0.0786 
    102 H102       22.6470   -0.9981   -0.9996 H         1 UNK         0.0786 
    103 H103       22.7848   -2.7483   -1.0967 H         1 UNK         0.0786 
    104 H104       25.3072   -3.3726   -0.8719 H         1 UNK         0.2977 
    105 H105       25.1737    1.2263   -4.6732 H         1 UNK         0.3127 
    106 H106       24.6105    3.9232   -4.3344 H         1 UNK         0.0770 
    107 H107       22.8853    2.1658   -4.5486 H         1 UNK         0.0814 
    108 H108       23.3240    1.8870   -6.2333 H         1 UNK         0.0814 
    109 H109       22.5920    3.4123   -5.7494 H         1 UNK         0.0814 
    110 H110       26.2380    2.4727   -7.1288 H         1 UNK         0.2983 
    111 H111       26.5930    5.1960   -8.2773 H         1 UNK         0.0947 
    112 H112       24.7472    4.0833   -9.5758 H         1 UNK         0.0806 
    113 H113       25.8077    2.7127   -9.9030 H         1 UNK         0.0806 
    114 H114       26.1829    4.3018  -10.5594 H         1 UNK         0.0806 
    115 H115       28.1381    3.0515   -6.6948 H         1 UNK         0.3000 
    116 H116       30.1050    2.1263   -6.4434 H         1 UNK         0.0850 
    117 H117       31.1569    3.8044   -8.7800 H         1 UNK         0.0810 
    118 H118       32.1266    2.9393   -7.5997 H         1 UNK         0.0810 
    119 H119       31.1349    4.2950   -7.0866 H         1 UNK         0.0810 
    120 H120       29.3445    2.2397   -9.8946 H         1 UNK         0.3040 
    121 H121       29.3228    0.7847  -11.5784 H         1 UNK         0.0766 
    122 H122       28.1759   -1.3819  -11.1026 H         1 UNK         0.0812 
    123 H123       27.4218   -0.0614  -10.2312 H         1 UNK         0.0812 
    124 H124       28.4718   -1.1731   -9.3747 H         1 UNK         0.0812 
    125 H125       30.0455   -2.2049  -10.2370 H         1 UNK         0.3205 
    126 H126       32.4168   -2.6223  -11.7028 H         1 UNK         0.0754 
    127 H127       30.8746   -4.4485  -11.0179 H         1 UNK         0.0769 
    128 H128       32.4948   -4.7788  -10.4307 H         1 UNK         0.0769 
    129 H129       31.2716   -4.1811   -9.3187 H         1 UNK         0.0769 
    130 H130       32.0253   -1.2019   -8.5158 H         1 UNK         0.2981 
    131 H131       34.9108   -1.4941   -7.8926 H         1 UNK         0.0541 
    132 H132       34.1583    2.0651   -9.4732 H         1 UNK         0.3459 
    133 H133       33.2029    0.6498   -9.8417 H         1 UNK         0.3459 
    134 H134       34.3300   -0.6378   -5.6513 H         1 UNK         0.0612 
    135 H135       32.6694   -0.4239   -6.1369 H         1 UNK         0.0612 
    136 H136       31.0823   -3.7400   -5.4196 H         1 UNK         0.0624 
    137 H137       30.9302   -2.1629   -6.1518 H         1 UNK         0.0624 
@<TRIPOS>BOND
     1    1    2 1    
     2    1   72 1    
     3    1   73 1    
     4    1   74 1    
     5    2    3 2    
     6    2    4 am   BACKBONE|DICT|INTERRES
     7    4    5 1    
     8    4   75 1    
     9    5    6 1    
    10    5   35 1    
    11    5   76 1    
    12    6    7 1    
    13    6   77 1    
    14    6   78 1    
    15    7    8 1    
    16    8    9 1    
    17    8   79 1    
    18    8   80 1    
    19    9   10 ar   
    20    9   14 ar   
    21   10   11 ar   
    22   10   81 1    
    23   11   12 ar   
    24   11   71 1    
    25   12   13 ar   
    26   12   82 1    
    27   13   14 ar   
    28   13   15 1    
    29   14   83 1    
    30   15   16 1    
    31   15   84 1    
    32   15   85 1    
    33   16   17 1    
    34   17   18 1    
    35   17   86 1    
    36   17   87 1    
    37   18   19 1    
    38   18   37 1    
    39   18   88 1    
    40   19   20 am   BACKBONE|DICT|INTERRES
    41   19   89 1    
    42   20   21 2    
    43   20   22 1    
    44   22   23 1    
    45   22   24 1    
    46   22   90 1    
    47   23   91 1    
    48   23   92 1    
    49   23   93 1    
    50   24   25 am   BACKBONE|DICT|INTERRES
    51   24   94 1    
    52   25   26 2    
    53   25   27 1    
    54   27   28 1    
    55   27   29 1    
    56   27   95 1    
    57   28   96 1    
    58   28   97 1    
    59   28   98 1    
    60   29   30 am   BACKBONE|DICT|INTERRES
    61   29   99 1    
    62   30   31 2    
    63   30   32 1    
    64   32   33 1    
    65   32   34 1    
    66   32  100 1    
    67   33  101 1    
    68   33  102 1    
    69   33  103 1    
    70   34   35 am   BACKBONE|DICT|INTERRES
    71   34  104 1    
    72   35   36 2    
    73   37   38 2    
    74   37   39 am   BACKBONE|DICT|INTERRES
    75   39   40 1    
    76   39  105 1    
    77   40   41 1    
    78   40   42 1    
    79   40  106 1    
    80   41  107 1    
    81   41  108 1    
    82   41  109 1    
    83   42   43 2    
    84   42   44 am   BACKBONE|DICT|INTERRES
    85   44   45 1    
    86   44  110 1    
    87   45   46 1    
    88   45   47 1    
    89   45  111 1    
    90   46  112 1    
    91   46  113 1    
    92   46  114 1    
    93   47   48 2    
    94   47   49 am   BACKBONE|DICT|INTERRES
    95   49   50 1    
    96   49  115 1    
    97   50   51 1    
    98   50   52 1    
    99   50  116 1    
   100   51  117 1    
   101   51  118 1    
   102   51  119 1    
   103   52   53 2    
   104   52   54 am   BACKBONE|DICT|INTERRES
   105   54   55 1    
   106   54  120 1    
   107   55   56 1    
   108   55   57 1    
   109   55  121 1    
   110   56  122 1    
   111   56  123 1    
   112   56  124 1    
   113   57   58 2    
   114   57   59 am   BACKBONE|DICT|INTERRES
   115   59   60 1    
   116   59  125 1    
   117   60   61 1    
   118   60   62 1    
   119   60  126 1    
   120   61  127 1    
   121   61  128 1    
   122   61  129 1    
   123   62   63 2    
   124   62   64 am   BACKBONE|DICT|INTERRES
   125   64   65 1    
   126   64  130 1    
   127   65   66 1    
   128   65   69 1    
   129   65  131 1    
   130   66   67 am   BACKBONE|DICT|INTERRES
   131   66   68 2    
   132   67  132 1    
   133   67  133 1    
   134   69   70 1    
   135   69  134 1    
   136   69  135 1    
   137   70   71 1    
   138   71  136 1    
   139   71  137 1    
@<TRIPOS>SUBSTRUCTURE
     1 UNK         1 GROUP             0       ****    0 ROOT    
