@<TRIPOS>MOLECULE
3R137
137   139    1
SMALL
USER_CHARGES


@<TRIPOS>ATOM
      1 CA         22.8189   -4.2500   -0.2097 C.3       0 UNK        -0.2020 
      2 C          24.3024   -3.9165   -0.2438 C.2       0 UNK         0.4855 
      3 O          24.8199   -3.3199    0.7013 O.2       0 UNK        -0.5197 
      4 N          24.9936   -4.2826   -1.3314 N.am      1 UNK        -0.4892 
      5 CA         26.4226   -4.0350   -1.5600 C.3       1 UNK         0.0835 
      6 C6         27.0027   -5.0816   -2.5484 C.3       12 UNK        -0.0855 
      7 S7         28.8253   -5.1949   -2.4870 S.3       12 UNK        -0.2931 
      8 C8         29.2827   -4.7191   -4.1881 C.3       12 UNK         0.0378 
      9 C9         30.5110   -3.8238   -4.2209 C.ar      12 UNK        -0.0802 
     10 C10        31.6517   -4.1918   -4.9418 C.ar      12 UNK        -0.0944 
     11 C11        32.7488   -3.3266   -5.0177 C.ar      12 UNK        -0.0787 
     12 C12        32.6986   -2.0913   -4.3643 C.ar      12 UNK        -0.0862 
     13 C13        31.5648   -1.7144   -3.6400 C.ar      12 UNK        -0.0733 
     14 C14        30.4803   -2.5906   -3.5661 C.ar      12 UNK        -0.0832 
     15 C15        31.5161   -0.3666   -2.9347 C.3       12 UNK         0.0240 
     16 S16        30.8613    0.9510   -4.0110 S.3       12 UNK        -0.2522 
     17 C17        29.0701    0.6033   -4.0072 C.3       12 UNK        -0.0967 
     18 CA         28.4783    0.4358   -5.4328 C.3       5 UNK         0.0660 
     19 N          27.3545   -0.5120   -5.4593 N.am      5 UNK        -0.4015 
     20 C          26.6397   -0.8606   -6.5420 C.2       4 UNK         0.4946 
     21 O          26.8903   -0.4919   -7.6906 O.2       4 UNK        -0.5353 
     22 CA         25.4014   -1.7371   -6.3035 C.3       4 UNK         0.0277 
     23 CB         25.7751   -3.2258   -6.2757 C.3       4 UNK        -0.1981 
     24 N          24.6947   -1.3662   -5.0761 N.am      4 UNK        -0.4209 
     25 C          24.0045   -0.2256   -4.9255 C.2       3 UNK         0.4942 
     26 O          23.8480    0.6029   -5.8210 O.2       3 UNK        -0.5208 
     27 CA         23.4406    0.0644   -3.5247 C.3       3 UNK         0.0250 
     28 CB         22.1408   -0.7205   -3.2850 C.3       3 UNK        -0.1990 
     29 N          24.4004   -0.2357   -2.4603 N.am      3 UNK        -0.4232 
     30 C          25.5854    0.3732   -2.3089 C.2       2 UNK         0.4993 
     31 O          25.9755    1.3008   -3.0183 O.2       2 UNK        -0.5286 
     32 CA         26.5136   -0.1843   -1.2163 C.3       2 UNK         0.0209 
     33 CB         26.2411    0.5118    0.1259 C.3       2 UNK        -0.1931 
     34 N          26.4120   -1.6382   -1.0413 N.am      2 UNK        -0.4546 
     35 C          26.6488   -2.5639   -1.9821 C.2       1 UNK         0.5154 
     36 O          26.9632   -2.2801   -3.1403 O.2       1 UNK        -0.5181 
     37 C          28.0895    1.8022   -6.0308 C.2       5 UNK         0.5014 
     38 O          28.7839    2.3100   -6.9125 O.2       5 UNK        -0.5248 
     39 N          26.9619    2.3492   -5.5535 N.am      6 UNK        -0.4434 
     40 CA         26.3679    3.5917   -6.0429 C.3       6 UNK         0.0363 
     41 CB         25.2413    4.0243   -5.0909 C.3       6 UNK        -0.1936 
     42 C          25.8461    3.4844   -7.4862 C.2       6 UNK         0.5081 
     43 O          25.9915    4.4418   -8.2470 O.2       6 UNK        -0.5248 
     44 N          25.2364    2.3418   -7.8330 N.am      7 UNK        -0.4718 
     45 CA         24.6448    2.0923   -9.1476 C.3       7 UNK         0.0273 
     46 CB         23.7208    0.8655   -9.0895 C.3       7 UNK        -0.1935 
     47 C          25.6789    1.9349  -10.2726 C.2       7 UNK         0.5018 
     48 O          25.5218    2.5811  -11.3104 O.2       7 UNK        -0.5186 
     49 N          26.6874    1.0711  -10.0783 N.am      8 UNK        -0.4240 
     50 CA         27.6403    0.7158  -11.1374 C.3       8 UNK         0.0235 
     51 CB         26.9821   -0.2562  -12.1384 C.3       8 UNK        -0.2000 
     52 C          28.9723    0.1291  -10.6501 C.2       8 UNK         0.4941 
     53 O          29.9682    0.2820  -11.3612 O.2       8 UNK        -0.5273 
     54 N          29.0038   -0.5529   -9.4962 N.am      9 UNK        -0.4262 
     55 CA         30.1806   -1.2759   -8.9986 C.3       9 UNK         0.0264 
     56 CB         29.7372   -2.4019   -8.0432 C.3       9 UNK        -0.1955 
     57 C          31.2257   -0.3352   -8.3709 C.2       9 UNK         0.5031 
     58 O          31.5551   -0.4690   -7.1942 O.2       9 UNK        -0.5390 
     59 N          31.7681    0.5853   -9.1763 N.am      10 UNK        -0.4204 
     60 CA         32.7860    1.5779   -8.8071 C.3       10 UNK         0.0237 
     61 CB         32.7661    2.7116   -9.8497 C.3       10 UNK        -0.1985 
     62 C          34.2042    0.9928   -8.5995 C.2       10 UNK         0.4970 
     63 O          35.1934    1.6678   -8.8894 O.2       10 UNK        -0.4914 
     64 N          34.2834   -0.2441   -8.1006 N.am      11 UNK        -0.4285 
     65 CA         35.5069   -0.9705   -7.7326 C.3       11 UNK         0.1007 
     66 C          36.0355   -0.6416   -6.3055 C.2       11 UNK         0.5703 
     67 N          35.3735    0.2035   -5.5233 N.am      11 UNK        -0.7361 
     68 O          37.0818   -1.1470   -5.9062 O.2       11 UNK        -0.4986 
     69 C69        35.3774   -2.5022   -7.9956 C.3       12 UNK        -0.0947 
     70 S70        33.7581   -3.2354   -7.5675 S.3       12 UNK        -0.2240 
     71 C71        33.9785   -3.7088   -5.8267 C.3       12 UNK         0.0194 
     72 H72        22.2312   -3.3373   -0.1146 H         1 UNK         0.0906 
     73 H73        22.4954   -4.7694   -1.1117 H         1 UNK         0.0906 
     74 H74        22.5984   -4.8877    0.6460 H         1 UNK         0.0906 
     75 H75        24.5098   -4.7560   -2.0819 H         1 UNK         0.3140 
     76 H76        26.9403   -4.1714   -0.6073 H         1 UNK         0.1085 
     77 H77        26.6471   -4.9077   -3.5643 H         1 UNK         0.0836 
     78 H78        26.6317   -6.0730   -2.2828 H         1 UNK         0.0836 
     79 H79        28.4706   -4.1722   -4.6647 H         1 UNK         0.0731 
     80 H80        29.4361   -5.6225   -4.7802 H         1 UNK         0.0731 
     81 H81        31.6805   -5.1390   -5.4628 H         1 UNK         0.1312 
     82 H82        33.5375   -1.4147   -4.4309 H         1 UNK         0.1406 
     83 H83        29.6002   -2.3200   -3.0023 H         1 UNK         0.1631 
     84 H84        32.5208   -0.0853   -2.6156 H         1 UNK         0.0717 
     85 H85        30.9186   -0.4309   -2.0239 H         1 UNK         0.0717 
     86 H86        28.8940   -0.2976   -3.4259 H         1 UNK         0.0934 
     87 H87        28.5727    1.3970   -3.4470 H         1 UNK         0.0934 
     88 H88        29.2451    0.0072   -6.0764 H         1 UNK         0.0739 
     89 H89        27.1002   -0.9368   -4.5729 H         1 UNK         0.3093 
     90 H90        24.7201   -1.5840   -7.1420 H         1 UNK         0.0818 
     91 H91        26.2882   -3.5155   -7.1939 H         1 UNK         0.0819 
     92 H92        26.4383   -3.4588   -5.4459 H         1 UNK         0.0819 
     93 H93        24.8902   -3.8558   -6.1860 H         1 UNK         0.0819 
     94 H94        24.8269   -1.9658   -4.2745 H         1 UNK         0.3041 
     95 H95        23.2118    1.1313   -3.4757 H         1 UNK         0.0784 
     96 H96        21.4063   -0.5026   -4.0618 H         1 UNK         0.0793 
     97 H97        22.3084   -1.7983   -3.2879 H         1 UNK         0.0793 
     98 H98        21.6873   -0.4539   -2.3301 H         1 UNK         0.0793 
     99 H99        24.1640   -0.9813   -1.8227 H         1 UNK         0.3024 
    100 H100       27.5391    0.0415   -1.5113 H         1 UNK         0.1171 
    101 H101       26.9577    0.2008    0.8864 H         1 UNK         0.0786 
    102 H102       26.3249    1.5954    0.0283 H         1 UNK         0.0786 
    103 H103       25.2398    0.2935    0.4994 H         1 UNK         0.0786 
    104 H104       26.0742   -1.9718   -0.1433 H         1 UNK         0.2977 
    105 H105       26.4822    1.8846   -4.7852 H         1 UNK         0.3127 
    106 H106       27.1430    4.3608   -6.0268 H         1 UNK         0.0770 
    107 H107       24.4459    3.2793   -5.0431 H         1 UNK         0.0814 
    108 H108       24.7921    4.9630   -5.4177 H         1 UNK         0.0814 
    109 H109       25.6150    4.1776   -4.0783 H         1 UNK         0.0814 
    110 H110       25.1001    1.6257   -7.1273 H         1 UNK         0.2983 
    111 H111       24.0250    2.9568   -9.3965 H         1 UNK         0.0947 
    112 H112       24.2676   -0.0393   -8.8268 H         1 UNK         0.0806 
    113 H113       23.2461    0.6889  -10.0556 H         1 UNK         0.0806 
    114 H114       22.9237    1.0022   -8.3588 H         1 UNK         0.0806 
    115 H115       26.7608    0.5890   -9.1843 H         1 UNK         0.3000 
    116 H116       27.9034    1.6302  -11.6743 H         1 UNK         0.0850 
    117 H117       27.6846   -0.5545  -12.9181 H         1 UNK         0.0810 
    118 H118       26.1271    0.1980  -12.6390 H         1 UNK         0.0810 
    119 H119       26.6369   -1.1650  -11.6441 H         1 UNK         0.0810 
    120 H120       28.1735   -0.5966   -8.9078 H         1 UNK         0.3040 
    121 H121       30.6681   -1.7612   -9.8471 H         1 UNK         0.0766 
    122 H122       29.0227   -3.0724   -8.5203 H         1 UNK         0.0812 
    123 H123       29.2801   -2.0166   -7.1341 H         1 UNK         0.0812 
    124 H124       30.5919   -3.0052   -7.7343 H         1 UNK         0.0812 
    125 H125       31.4170    0.6156  -10.1304 H         1 UNK         0.3205 
    126 H126       32.4903    2.0083   -7.8480 H         1 UNK         0.0754 
    127 H127       33.4379    3.5227   -9.5658 H         1 UNK         0.0769 
    128 H128       31.7693    3.1427   -9.9469 H         1 UNK         0.0769 
    129 H129       33.0761    2.3572  -10.8335 H         1 UNK         0.0769 
    130 H130       33.4158   -0.6873   -7.8139 H         1 UNK         0.2981 
    131 H131       36.3010   -0.6179   -8.3932 H         1 UNK         0.0541 
    132 H132       35.7412    0.4207   -4.6108 H         1 UNK         0.3459 
    133 H133       34.5168    0.6281   -5.8394 H         1 UNK         0.3459 
    134 H134       35.5124   -2.6771   -9.0638 H         1 UNK         0.0612 
    135 H135       36.1763   -3.0701   -7.5153 H         1 UNK         0.0612 
    136 H136       34.1546   -4.7837   -5.7666 H         1 UNK         0.0624 
    137 H137       34.8636   -3.2285   -5.4084 H         1 UNK         0.0624 
@<TRIPOS>BOND
     1    1    2 1    
     2    1   72 1    
     3    1   73 1    
     4    1   74 1    
     5    2    3 2    
     6    2    4 am   BACKBONE|DICT|INTERRES
     7    4    5 1    
     8    4   75 1    
     9    5    6 1    
    10    5   35 1    
    11    5   76 1    
    12    6    7 1    
    13    6   77 1    
    14    6   78 1    
    15    7    8 1    
    16    8    9 1    
    17    8   79 1    
    18    8   80 1    
    19    9   10 ar   
    20    9   14 ar   
    21   10   11 ar   
    22   10   81 1    
    23   11   12 ar   
    24   11   71 1    
    25   12   13 ar   
    26   12   82 1    
    27   13   14 ar   
    28   13   15 1    
    29   14   83 1    
    30   15   16 1    
    31   15   84 1    
    32   15   85 1    
    33   16   17 1    
    34   17   18 1    
    35   17   86 1    
    36   17   87 1    
    37   18   19 1    
    38   18   37 1    
    39   18   88 1    
    40   19   20 am   BACKBONE|DICT|INTERRES
    41   19   89 1    
    42   20   21 2    
    43   20   22 1    
    44   22   23 1    
    45   22   24 1    
    46   22   90 1    
    47   23   91 1    
    48   23   92 1    
    49   23   93 1    
    50   24   25 am   BACKBONE|DICT|INTERRES
    51   24   94 1    
    52   25   26 2    
    53   25   27 1    
    54   27   28 1    
    55   27   29 1    
    56   27   95 1    
    57   28   96 1    
    58   28   97 1    
    59   28   98 1    
    60   29   30 am   BACKBONE|DICT|INTERRES
    61   29   99 1    
    62   30   31 2    
    63   30   32 1    
    64   32   33 1    
    65   32   34 1    
    66   32  100 1    
    67   33  101 1    
    68   33  102 1    
    69   33  103 1    
    70   34   35 am   BACKBONE|DICT|INTERRES
    71   34  104 1    
    72   35   36 2    
    73   37   38 2    
    74   37   39 am   BACKBONE|DICT|INTERRES
    75   39   40 1    
    76   39  105 1    
    77   40   41 1    
    78   40   42 1    
    79   40  106 1    
    80   41  107 1    
    81   41  108 1    
    82   41  109 1    
    83   42   43 2    
    84   42   44 am   BACKBONE|DICT|INTERRES
    85   44   45 1    
    86   44  110 1    
    87   45   46 1    
    88   45   47 1    
    89   45  111 1    
    90   46  112 1    
    91   46  113 1    
    92   46  114 1    
    93   47   48 2    
    94   47   49 am   BACKBONE|DICT|INTERRES
    95   49   50 1    
    96   49  115 1    
    97   50   51 1    
    98   50   52 1    
    99   50  116 1    
   100   51  117 1    
   101   51  118 1    
   102   51  119 1    
   103   52   53 2    
   104   52   54 am   BACKBONE|DICT|INTERRES
   105   54   55 1    
   106   54  120 1    
   107   55   56 1    
   108   55   57 1    
   109   55  121 1    
   110   56  122 1    
   111   56  123 1    
   112   56  124 1    
   113   57   58 2    
   114   57   59 am   BACKBONE|DICT|INTERRES
   115   59   60 1    
   116   59  125 1    
   117   60   61 1    
   118   60   62 1    
   119   60  126 1    
   120   61  127 1    
   121   61  128 1    
   122   61  129 1    
   123   62   63 2    
   124   62   64 am   BACKBONE|DICT|INTERRES
   125   64   65 1    
   126   64  130 1    
   127   65   66 1    
   128   65   69 1    
   129   65  131 1    
   130   66   67 am   BACKBONE|DICT|INTERRES
   131   66   68 2    
   132   67  132 1    
   133   67  133 1    
   134   69   70 1    
   135   69  134 1    
   136   69  135 1    
   137   70   71 1    
   138   71  136 1    
   139   71  137 1    
@<TRIPOS>SUBSTRUCTURE
     1 UNK         1 GROUP             0       ****    0 ROOT    
