@<TRIPOS>MOLECULE
3R137
137   139    1
SMALL
USER_CHARGES


@<TRIPOS>ATOM
      1 CA         25.1062   -6.3944    1.2525 C.3       0 UNK        -0.2020 
      2 C          25.6593   -4.9903    1.0588 C.2       0 UNK         0.4855 
      3 O          25.6727   -4.2019    2.0048 O.2       0 UNK        -0.5197 
      4 N          26.1233   -4.6738   -0.1566 N.am      1 UNK        -0.4892 
      5 CA         26.6148   -3.3475   -0.5407 C.3       1 UNK         0.0835 
      6 C6         27.4726   -3.4266   -1.8261 C.3       12 UNK        -0.0855 
      7 S7         28.5372   -1.9582   -2.0443 S.3       12 UNK        -0.2931 
      8 C8         30.2122   -2.6813   -2.0575 C.3       12 UNK         0.0378 
      9 C9         30.7050   -3.0398   -3.4583 C.ar      12 UNK        -0.0802 
     10 C10        31.8599   -2.4334   -3.9667 C.ar      12 UNK        -0.0944 
     11 C11        32.3724   -2.8071   -5.2127 C.ar      12 UNK        -0.0787 
     12 C12        31.7053   -3.7755   -5.9687 C.ar      12 UNK        -0.0862 
     13 C13        30.5498   -4.3896   -5.4775 C.ar      12 UNK        -0.0733 
     14 C14        30.0567   -4.0183   -4.2214 C.ar      12 UNK        -0.0832 
     15 C15        29.8818   -5.5049   -6.2745 C.3       12 UNK         0.0240 
     16 S16        28.9042   -4.8893   -7.6836 S.3       12 UNK        -0.2522 
     17 C17        27.4615   -4.1647   -6.8333 C.3       12 UNK        -0.0967 
     18 CA         26.9046   -2.8888   -7.5241 C.3       5 UNK         0.0660 
     19 N          25.6196   -2.4302   -6.9777 N.am      5 UNK        -0.4015 
     20 C          25.3747   -2.1004   -5.7032 C.2       4 UNK         0.4946 
     21 O          26.1807   -2.2703   -4.7875 O.2       4 UNK        -0.5353 
     22 CA         24.0326   -1.4140   -5.4012 C.3       4 UNK         0.0277 
     23 CB         23.0171   -2.4264   -4.8499 C.3       4 UNK        -0.1981 
     24 N          24.2129   -0.3312   -4.4300 N.am      4 UNK        -0.4209 
     25 C          25.0160    0.7277   -4.5993 C.2       3 UNK         0.4942 
     26 O          25.5896    0.9768   -5.6605 O.2       3 UNK        -0.5208 
     27 CA         25.2654    1.6542   -3.3955 C.3       3 UNK         0.0250 
     28 CB         24.3257    2.8753   -3.4347 C.3       3 UNK        -0.1990 
     29 N          25.2535    0.9960   -2.0776 N.am      3 UNK        -0.4232 
     30 C          24.2190    0.4607   -1.4132 C.2       2 UNK         0.4993 
     31 O          23.0748    0.3866   -1.8650 O.2       2 UNK        -0.5286 
     32 CA         24.5443   -0.1087   -0.0200 C.3       2 UNK         0.0209 
     33 CB         23.2876   -0.5624    0.7556 C.3       2 UNK        -0.1931 
     34 N          25.5442   -1.1850   -0.0738 N.am      2 UNK        -0.4546 
     35 C          25.4271   -2.3714   -0.6916 C.2       1 UNK         0.5154 
     36 O          24.4400   -2.7220   -1.3433 O.2       1 UNK        -0.5181 
     37 C          27.9302   -1.7360   -7.5897 C.2       5 UNK         0.5014 
     38 O          28.3826   -1.4045   -8.6858 O.2       5 UNK        -0.5248 
     39 N          28.2462   -1.1240   -6.4399 N.am      6 UNK        -0.4434 
     40 CA         29.2363   -0.0569   -6.2739 C.3       6 UNK         0.0363 
     41 CB         29.2691    0.4003   -4.8085 C.3       6 UNK        -0.1936 
     42 C          29.0445    1.1518   -7.2016 C.2       6 UNK         0.5081 
     43 O          30.0288    1.6350   -7.7586 O.2       6 UNK        -0.5248 
     44 N          27.7975    1.6089   -7.3769 N.am      7 UNK        -0.4718 
     45 CA         27.4541    2.7234   -8.2659 C.3       7 UNK         0.0273 
     46 CB         26.0123    3.1765   -7.9873 C.3       7 UNK        -0.1935 
     47 C          27.6368    2.4001   -9.7597 C.2       7 UNK         0.5018 
     48 O          27.9364    3.3084  -10.5350 O.2       7 UNK        -0.5186 
     49 N          27.4624    1.1260  -10.1373 N.am      8 UNK        -0.4240 
     50 CA         27.6594    0.6367  -11.5037 C.3       8 UNK         0.0235 
     51 CB         26.8029   -0.6198  -11.7337 C.3       8 UNK        -0.2000 
     52 C          29.1414    0.3497  -11.7868 C.2       8 UNK         0.4941 
     53 O          29.6349    0.6995  -12.8591 O.2       8 UNK        -0.5273 
     54 N          29.8253   -0.2651  -10.8127 N.am      9 UNK        -0.4262 
     55 CA         31.2521   -0.5916  -10.8547 C.3       9 UNK         0.0264 
     56 CB         31.5347   -1.6655   -9.7920 C.3       9 UNK        -0.1955 
     57 C          32.1789    0.6270  -10.6684 C.2       9 UNK         0.5031 
     58 O          33.3688    0.5162  -10.9674 O.2       9 UNK        -0.5390 
     59 N          31.6255    1.7504  -10.1866 N.am      10 UNK        -0.4204 
     60 CA         32.2879    3.0170   -9.8523 C.3       10 UNK         0.0237 
     61 CB         32.9340    3.6661  -11.0955 C.3       10 UNK        -0.1985 
     62 C          33.2528    2.8705   -8.6600 C.2       10 UNK         0.4970 
     63 O          34.3678    3.3950   -8.6928 O.2       10 UNK        -0.4914 
     64 N          32.7917    2.1591   -7.6253 N.am      11 UNK        -0.4285 
     65 CA         33.5201    1.9110   -6.3712 C.3       11 UNK         0.1007 
     66 C          33.4002    3.0658   -5.3357 C.2       11 UNK         0.5703 
     67 N          32.5483    4.0637   -5.5429 N.am      11 UNK        -0.7361 
     68 O          34.1044    3.0624   -4.3288 O.2       11 UNK        -0.4986 
     69 C69        33.1228    0.5510   -5.7392 C.3       12 UNK        -0.0947 
     70 S70        33.4289   -0.8443   -6.8709 S.3       12 UNK        -0.2240 
     71 C71        33.6848   -2.2220   -5.7158 C.3       12 UNK         0.0194 
     72 H72        25.6625   -6.9126    2.0331 H         1 UNK         0.0906 
     73 H73        24.0601   -6.3467    1.5540 H         1 UNK         0.0906 
     74 H74        25.1693   -6.9880    0.3406 H         1 UNK         0.0906 
     75 H75        26.0463   -5.3463   -0.9064 H         1 UNK         0.3140 
     76 H76        27.2556   -2.9964    0.2719 H         1 UNK         0.1085 
     77 H77        26.8476   -3.5601   -2.7096 H         1 UNK         0.0836 
     78 H78        28.1057   -4.3131   -1.7806 H         1 UNK         0.0836 
     79 H79        30.2528   -3.5630   -1.4169 H         1 UNK         0.0731 
     80 H80        30.8858   -1.9551   -1.6000 H         1 UNK         0.0731 
     81 H81        32.3828   -1.6916   -3.3785 H         1 UNK         0.1312 
     82 H82        32.1016   -4.0724   -6.9303 H         1 UNK         0.1406 
     83 H83        29.1765   -4.5067   -3.8300 H         1 UNK         0.1631 
     84 H84        29.2430   -6.1124   -5.6314 H         1 UNK         0.0717 
     85 H85        30.6505   -6.1789   -6.6554 H         1 UNK         0.0717 
     86 H86        26.6839   -4.9286   -6.7914 H         1 UNK         0.0934 
     87 H87        27.7283   -3.9578   -5.7979 H         1 UNK         0.0934 
     88 H88        26.6868   -3.1597   -8.5588 H         1 UNK         0.0739 
     89 H89        24.9042   -2.2426   -7.6661 H         1 UNK         0.3093 
     90 H90        23.6377   -0.9758   -6.3200 H         1 UNK         0.0818 
     91 H91        22.0553   -1.9549   -4.6473 H         1 UNK         0.0819 
     92 H92        22.8405   -3.2329   -5.5627 H         1 UNK         0.0819 
     93 H93        23.3689   -2.8811   -3.9225 H         1 UNK         0.0819 
     94 H94        23.7703   -0.4393   -3.5233 H         1 UNK         0.3041 
     95 H95        26.2827    2.0304   -3.5159 H         1 UNK         0.0784 
     96 H96        24.4339    3.4164   -4.3758 H         1 UNK         0.0793 
     97 H97        23.2774    2.5883   -3.3478 H         1 UNK         0.0793 
     98 H98        24.5508    3.5758   -2.6306 H         1 UNK         0.0793 
     99 H99        26.1595    0.9370   -1.6328 H         1 UNK         0.3024 
    100 H100       24.9925    0.7092    0.5473 H         1 UNK         0.1171 
    101 H101       22.7549   -1.3629    0.2412 H         1 UNK         0.0786 
    102 H102       22.5869    0.2645    0.8776 H         1 UNK         0.0786 
    103 H103       23.5447   -0.9194    1.7529 H         1 UNK         0.0786 
    104 H104       26.4067   -0.9968    0.4191 H         1 UNK         0.2977 
    105 H105       27.7676   -1.4448   -5.6019 H         1 UNK         0.3127 
    106 H106       30.2067   -0.4938   -6.5170 H         1 UNK         0.0770 
    107 H107       29.8941    1.2849   -4.6787 H         1 UNK         0.0814 
    108 H108       28.2736    0.6464   -4.4386 H         1 UNK         0.0814 
    109 H109       29.6838   -0.3776   -4.1709 H         1 UNK         0.0814 
    110 H110       27.0370    1.2001   -6.8361 H         1 UNK         0.2983 
    111 H111       28.1218    3.5556   -8.0317 H         1 UNK         0.0947 
    112 H112       25.7351    4.0177   -8.6242 H         1 UNK         0.0806 
    113 H113       25.8924    3.5002   -6.9532 H         1 UNK         0.0806 
    114 H114       25.2956    2.3752   -8.1712 H         1 UNK         0.0806 
    115 H115       27.2889    0.4321   -9.4220 H         1 UNK         0.3000 
    116 H116       27.3261    1.4031  -12.2073 H         1 UNK         0.0850 
    117 H117       25.7441   -0.4102  -11.5808 H         1 UNK         0.0810 
    118 H118       27.0831   -1.4345  -11.0652 H         1 UNK         0.0810 
    119 H119       26.9161   -0.9847  -12.7554 H         1 UNK         0.0810 
    120 H120       29.3167   -0.5755   -9.9847 H         1 UNK         0.3040 
    121 H121       31.4760   -1.0171  -11.8351 H         1 UNK         0.0766 
    122 H122       32.5930   -1.9286   -9.7652 H         1 UNK         0.0812 
    123 H123       30.9768   -2.5801   -9.9937 H         1 UNK         0.0812 
    124 H124       31.2544   -1.3228   -8.7955 H         1 UNK         0.0812 
    125 H125       30.6595    1.6858   -9.8901 H         1 UNK         0.3205 
    126 H126       31.4946    3.6855   -9.5141 H         1 UNK         0.0754 
    127 H127       33.2957    4.6693  -10.8667 H         1 UNK         0.0769 
    128 H128       32.2171    3.7585  -11.9113 H         1 UNK         0.0769 
    129 H129       33.7857    3.0913  -11.4602 H         1 UNK         0.0769 
    130 H130       31.8369    1.8089   -7.6679 H         1 UNK         0.2981 
    131 H131       34.5830    1.8497   -6.6127 H         1 UNK         0.0541 
    132 H132       31.9644    4.0741   -6.3631 H         1 UNK         0.3459 
    133 H133       32.4864    4.8085   -4.8669 H         1 UNK         0.3459 
    134 H134       32.0713    0.5474   -5.4557 H         1 UNK         0.0612 
    135 H135       33.6889    0.3817   -4.8217 H         1 UNK         0.0612 
    136 H136       34.2507   -2.9996   -6.2309 H         1 UNK         0.0624 
    137 H137       34.3115   -1.9002   -4.8829 H         1 UNK         0.0624 
@<TRIPOS>BOND
     1    1    2 1    
     2    1   72 1    
     3    1   73 1    
     4    1   74 1    
     5    2    3 2    
     6    2    4 am   BACKBONE|DICT|INTERRES
     7    4    5 1    
     8    4   75 1    
     9    5    6 1    
    10    5   35 1    
    11    5   76 1    
    12    6    7 1    
    13    6   77 1    
    14    6   78 1    
    15    7    8 1    
    16    8    9 1    
    17    8   79 1    
    18    8   80 1    
    19    9   10 ar   
    20    9   14 ar   
    21   10   11 ar   
    22   10   81 1    
    23   11   12 ar   
    24   11   71 1    
    25   12   13 ar   
    26   12   82 1    
    27   13   14 ar   
    28   13   15 1    
    29   14   83 1    
    30   15   16 1    
    31   15   84 1    
    32   15   85 1    
    33   16   17 1    
    34   17   18 1    
    35   17   86 1    
    36   17   87 1    
    37   18   19 1    
    38   18   37 1    
    39   18   88 1    
    40   19   20 am   BACKBONE|DICT|INTERRES
    41   19   89 1    
    42   20   21 2    
    43   20   22 1    
    44   22   23 1    
    45   22   24 1    
    46   22   90 1    
    47   23   91 1    
    48   23   92 1    
    49   23   93 1    
    50   24   25 am   BACKBONE|DICT|INTERRES
    51   24   94 1    
    52   25   26 2    
    53   25   27 1    
    54   27   28 1    
    55   27   29 1    
    56   27   95 1    
    57   28   96 1    
    58   28   97 1    
    59   28   98 1    
    60   29   30 am   BACKBONE|DICT|INTERRES
    61   29   99 1    
    62   30   31 2    
    63   30   32 1    
    64   32   33 1    
    65   32   34 1    
    66   32  100 1    
    67   33  101 1    
    68   33  102 1    
    69   33  103 1    
    70   34   35 am   BACKBONE|DICT|INTERRES
    71   34  104 1    
    72   35   36 2    
    73   37   38 2    
    74   37   39 am   BACKBONE|DICT|INTERRES
    75   39   40 1    
    76   39  105 1    
    77   40   41 1    
    78   40   42 1    
    79   40  106 1    
    80   41  107 1    
    81   41  108 1    
    82   41  109 1    
    83   42   43 2    
    84   42   44 am   BACKBONE|DICT|INTERRES
    85   44   45 1    
    86   44  110 1    
    87   45   46 1    
    88   45   47 1    
    89   45  111 1    
    90   46  112 1    
    91   46  113 1    
    92   46  114 1    
    93   47   48 2    
    94   47   49 am   BACKBONE|DICT|INTERRES
    95   49   50 1    
    96   49  115 1    
    97   50   51 1    
    98   50   52 1    
    99   50  116 1    
   100   51  117 1    
   101   51  118 1    
   102   51  119 1    
   103   52   53 2    
   104   52   54 am   BACKBONE|DICT|INTERRES
   105   54   55 1    
   106   54  120 1    
   107   55   56 1    
   108   55   57 1    
   109   55  121 1    
   110   56  122 1    
   111   56  123 1    
   112   56  124 1    
   113   57   58 2    
   114   57   59 am   BACKBONE|DICT|INTERRES
   115   59   60 1    
   116   59  125 1    
   117   60   61 1    
   118   60   62 1    
   119   60  126 1    
   120   61  127 1    
   121   61  128 1    
   122   61  129 1    
   123   62   63 2    
   124   62   64 am   BACKBONE|DICT|INTERRES
   125   64   65 1    
   126   64  130 1    
   127   65   66 1    
   128   65   69 1    
   129   65  131 1    
   130   66   67 am   BACKBONE|DICT|INTERRES
   131   66   68 2    
   132   67  132 1    
   133   67  133 1    
   134   69   70 1    
   135   69  134 1    
   136   69  135 1    
   137   70   71 1    
   138   71  136 1    
   139   71  137 1    
@<TRIPOS>SUBSTRUCTURE
     1 UNK         1 GROUP             0       ****    0 ROOT    
