@<TRIPOS>MOLECULE
3R137
137   139    1
SMALL
USER_CHARGES


@<TRIPOS>ATOM
      1 CA         26.2703   -0.8886    0.0618 C.3       0 UNK        -0.2020 
      2 C          26.7267   -1.7569    1.2305 C.2       0 UNK         0.4855 
      3 O          26.2965   -1.5226    2.3584 O.2       0 UNK        -0.5197 
      4 N          27.6021   -2.7513    1.0283 N.am      1 UNK        -0.4892 
      5 CA         28.1482   -3.2156   -0.2550 C.3       1 UNK         0.0835 
      6 C6         29.3618   -4.1523   -0.0411 C.3       12 UNK        -0.0855 
      7 S7         30.7822   -3.2381    0.6454 S.3       12 UNK        -0.2931 
      8 C8         31.9099   -3.1743   -0.7857 C.3       12 UNK         0.0378 
      9 C9         31.3059   -2.4639   -1.9924 C.ar      12 UNK        -0.0802 
     10 C10        31.1015   -3.1605   -3.1887 C.ar      12 UNK        -0.0944 
     11 C11        30.6127   -2.5007   -4.3202 C.ar      12 UNK        -0.0787 
     12 C12        30.3005   -1.1418   -4.2423 C.ar      12 UNK        -0.0862 
     13 C13        30.4902   -0.4357   -3.0514 C.ar      12 UNK        -0.0733 
     14 C14        30.9970   -1.1006   -1.9303 C.ar      12 UNK        -0.0832 
     15 C15        30.1886    1.0548   -2.9921 C.3       12 UNK         0.0240 
     16 S16        28.6023    1.4201   -2.1742 S.3       12 UNK        -0.2522 
     17 C17        27.3766    0.5296   -3.1980 C.3       12 UNK        -0.0967 
     18 CA         27.2511    0.9802   -4.6770 C.3       5 UNK         0.0660 
     19 N          26.4871   -0.0086   -5.4586 N.am      5 UNK        -0.4015 
     20 C          26.2854    0.0222   -6.7877 C.2       4 UNK         0.4946 
     21 O          26.6565    0.9526   -7.4992 O.2       4 UNK        -0.5353 
     22 CA         25.5488   -1.1478   -7.4645 C.3       4 UNK         0.0277 
     23 CB         26.5562   -2.0208   -8.2314 C.3       4 UNK        -0.1981 
     24 N          24.7819   -1.9930   -6.5515 N.am      4 UNK        -0.4209 
     25 C          23.7045   -1.6146   -5.8486 C.2       3 UNK         0.4942 
     26 O          23.1707   -0.5099   -5.9544 O.2       3 UNK        -0.5208 
     27 CA         23.1663   -2.6265   -4.8151 C.3       3 UNK         0.0250 
     28 CB         21.9671   -3.3965   -5.3910 C.3       3 UNK        -0.1990 
     29 N          24.1757   -3.5841   -4.3342 N.am      3 UNK        -0.4232 
     30 C          25.3171   -3.2390   -3.7216 C.2       2 UNK         0.4993 
     31 O          25.6308   -2.0700   -3.4843 O.2       2 UNK        -0.5286 
     32 CA         26.3134   -4.3689   -3.4203 C.3       2 UNK         0.0209 
     33 CB         27.0613   -4.7668   -4.7042 C.3       2 UNK        -0.1931 
     34 N          27.2948   -3.9274   -2.4291 N.am      2 UNK        -0.4546 
     35 C          27.0722   -3.9130   -1.1105 C.2       1 UNK         0.5154 
     36 O          26.0820   -4.4214   -0.5772 O.2       1 UNK        -0.5181 
     37 C          26.7662    2.4443   -4.8229 C.2       5 UNK         0.5014 
     38 O          27.5619    3.3619   -4.6199 O.2       5 UNK        -0.5248 
     39 N          25.5085    2.6500   -5.2426 N.am      6 UNK        -0.4434 
     40 CA         24.9634    3.9540   -5.6357 C.3       6 UNK         0.0363 
     41 CB         23.4621    3.8032   -5.9291 C.3       6 UNK        -0.1936 
     42 C          25.6839    4.5996   -6.8403 C.2       6 UNK         0.5081 
     43 O          25.7263    5.8278   -6.9193 O.2       6 UNK        -0.5248 
     44 N          26.2347    3.7764   -7.7439 N.am      7 UNK        -0.4718 
     45 CA         27.0139    4.1987   -8.9143 C.3       7 UNK         0.0273 
     46 CB         26.2959    3.7017  -10.1809 C.3       7 UNK        -0.1935 
     47 C          28.4596    3.6665   -8.8895 C.2       7 UNK         0.5018 
     48 O          29.2722    4.1095   -9.7024 O.2       7 UNK        -0.5186 
     49 N          28.7445    2.6963   -8.0090 N.am      8 UNK        -0.4240 
     50 CA         29.9523    1.8720   -7.8751 C.3       8 UNK         0.0235 
     51 CB         31.2300    2.7093   -7.6784 C.3       8 UNK        -0.2000 
     52 C          30.0946    0.8518   -9.0153 C.2       8 UNK         0.4941 
     53 O          30.2472   -0.3388   -8.7375 O.2       8 UNK        -0.5273 
     54 N          30.0068    1.3266  -10.2666 N.am      9 UNK        -0.4262 
     55 CA         30.0408    0.5606  -11.5163 C.3       9 UNK         0.0264 
     56 CB         28.7171   -0.2180  -11.6958 C.3       9 UNK        -0.1955 
     57 C          31.3071   -0.3120  -11.6054 C.2       9 UNK         0.5031 
     58 O          32.4073    0.2389  -11.6762 O.2       9 UNK        -0.5390 
     59 N          31.1436   -1.6413  -11.5531 N.am      10 UNK        -0.4204 
     60 CA         32.2249   -2.6313  -11.5336 C.3       10 UNK         0.0237 
     61 CB         31.6173   -4.0422  -11.5973 C.3       10 UNK        -0.1985 
     62 C          33.1717   -2.5091  -10.3237 C.2       10 UNK         0.4970 
     63 O          34.3334   -2.9022  -10.4387 O.2       10 UNK        -0.4914 
     64 N          32.6765   -1.9606   -9.2065 N.am      11 UNK        -0.4285 
     65 CA         33.4722   -1.6342   -8.0148 C.3       11 UNK         0.1007 
     66 C          34.1599   -0.2384   -8.0904 C.2       11 UNK         0.5703 
     67 N          33.9893    0.5482   -9.1482 N.am      11 UNK        -0.7361 
     68 O          34.8842    0.1366   -7.1716 O.2       11 UNK        -0.4986 
     69 C69        32.6435   -1.7938   -6.7137 C.3       12 UNK        -0.0947 
     70 S70        32.0629   -3.5060   -6.4583 S.3       12 UNK        -0.2240 
     71 C71        30.4576   -3.2425   -5.6405 C.3       12 UNK         0.0194 
     72 H72        25.6210   -1.4453   -0.6132 H         1 UNK         0.0906 
     73 H73        25.7119   -0.0250    0.4223 H         1 UNK         0.0906 
     74 H74        27.1243   -0.5129   -0.4970 H         1 UNK         0.0906 
     75 H75        27.8857   -3.3005    1.8266 H         1 UNK         0.3140 
     76 H76        28.4906   -2.3424   -0.8141 H         1 UNK         0.1085 
     77 H77        29.6674   -4.6300   -0.9742 H         1 UNK         0.0836 
     78 H78        29.1065   -4.9676    0.6387 H         1 UNK         0.0836 
     79 H79        32.2111   -4.1910   -1.0432 H         1 UNK         0.0731 
     80 H80        32.8222   -2.6544   -0.4900 H         1 UNK         0.0731 
     81 H81        31.3558   -4.2098   -3.2544 H         1 UNK         0.1312 
     82 H82        29.9336   -0.6307   -5.1208 H         1 UNK         0.1406 
     83 H83        31.1594   -0.5555   -1.0099 H         1 UNK         0.1631 
     84 H84        30.1973    1.4949   -3.9900 H         1 UNK         0.0717 
     85 H85        30.9840    1.5597   -2.4419 H         1 UNK         0.0717 
     86 H86        27.6497   -0.5252   -3.1564 H         1 UNK         0.0934 
     87 H87        26.4054    0.5979   -2.7046 H         1 UNK         0.0934 
     88 H88        28.2486    0.9674   -5.1132 H         1 UNK         0.0739 
     89 H89        26.1195   -0.7923   -4.9261 H         1 UNK         0.3093 
     90 H90        24.8509   -0.7140   -8.1837 H         1 UNK         0.0818 
     91 H91        26.0535   -2.7979   -8.8074 H         1 UNK         0.0819 
     92 H92        27.1341   -1.4211   -8.9362 H         1 UNK         0.0819 
     93 H93        27.2682   -2.5036   -7.5606 H         1 UNK         0.0819 
     94 H94        25.1314   -2.9277   -6.4037 H         1 UNK         0.3041 
     95 H95        22.8232   -2.0514   -3.9524 H         1 UNK         0.0784 
     96 H96        21.1905   -2.7105   -5.7327 H         1 UNK         0.0793 
     97 H97        22.2540   -4.0140   -6.2432 H         1 UNK         0.0793 
     98 H98        21.5143   -4.0459   -4.6414 H         1 UNK         0.0793 
     99 H99        23.9891   -4.5617   -4.5090 H         1 UNK         0.3024 
    100 H100       25.7675   -5.2339   -3.0356 H         1 UNK         0.1171 
    101 H101       27.8205   -5.5231   -4.5031 H         1 UNK         0.0786 
    102 H102       26.3798   -5.1876   -5.4444 H         1 UNK         0.0786 
    103 H103       27.5546   -3.9102   -5.1652 H         1 UNK         0.0786 
    104 H104       28.1163   -3.4654   -2.7921 H         1 UNK         0.2977 
    105 H105       24.9170    1.8451   -5.3960 H         1 UNK         0.3127 
    106 H106       25.0804    4.6303   -4.7862 H         1 UNK         0.0770 
    107 H107       22.9210    3.4365   -5.0567 H         1 UNK         0.0814 
    108 H108       23.2794    3.1124   -6.7534 H         1 UNK         0.0814 
    109 H109       23.0199    4.7621   -6.2032 H         1 UNK         0.0814 
    110 H110       26.1494    2.7726   -7.6043 H         1 UNK         0.2983 
    111 H111       27.0805    5.2878   -8.9589 H         1 UNK         0.0947 
    112 H112       25.2876    4.1102  -10.2498 H         1 UNK         0.0806 
    113 H113       26.2193    2.6135  -10.1987 H         1 UNK         0.0806 
    114 H114       26.8303    4.0070  -11.0816 H         1 UNK         0.0806 
    115 H115       27.9472    2.3185   -7.5078 H         1 UNK         0.3000 
    116 H116       29.8057    1.2933   -6.9625 H         1 UNK         0.0850 
    117 H117       31.4969    3.2740   -8.5718 H         1 UNK         0.0810 
    118 H118       32.0779    2.0665   -7.4394 H         1 UNK         0.0810 
    119 H119       31.1170    3.4152   -6.8557 H         1 UNK         0.0810 
    120 H120       29.8996    2.3324  -10.3618 H         1 UNK         0.3040 
    121 H121       30.1117    1.2873  -12.3269 H         1 UNK         0.0766 
    122 H122       28.6983   -0.7546  -12.6454 H         1 UNK         0.0812 
    123 H123       27.8656    0.4628  -11.7003 H         1 UNK         0.0812 
    124 H124       28.5485   -0.9407  -10.8970 H         1 UNK         0.0812 
    125 H125       30.2029   -1.9967  -11.4628 H         1 UNK         0.3205 
    126 H126       32.8267   -2.4757  -12.4314 H         1 UNK         0.0754 
    127 H127       31.0159   -4.1767  -12.4966 H         1 UNK         0.0769 
    128 H128       32.3989   -4.8033  -11.6163 H         1 UNK         0.0769 
    129 H129       30.9839   -4.2479  -10.7332 H         1 UNK         0.0769 
    130 H130       31.7203   -1.6193   -9.1943 H         1 UNK         0.2981 
    131 H131       34.2951   -2.3482   -7.9495 H         1 UNK         0.0541 
    132 H132       34.4599    1.4382   -9.1718 H         1 UNK         0.3459 
    133 H133       33.4195    0.2636   -9.9371 H         1 UNK         0.3459 
    134 H134       33.2347   -1.5215   -5.8375 H         1 UNK         0.0612 
    135 H135       31.7904   -1.1151   -6.7292 H         1 UNK         0.0612 
    136 H136       29.9949   -4.2136   -5.4615 H         1 UNK         0.0624 
    137 H137       29.7937   -2.7020   -6.3175 H         1 UNK         0.0624 
@<TRIPOS>BOND
     1    1    2 1    
     2    1   72 1    
     3    1   73 1    
     4    1   74 1    
     5    2    3 2    
     6    2    4 am   BACKBONE|DICT|INTERRES
     7    4    5 1    
     8    4   75 1    
     9    5    6 1    
    10    5   35 1    
    11    5   76 1    
    12    6    7 1    
    13    6   77 1    
    14    6   78 1    
    15    7    8 1    
    16    8    9 1    
    17    8   79 1    
    18    8   80 1    
    19    9   10 ar   
    20    9   14 ar   
    21   10   11 ar   
    22   10   81 1    
    23   11   12 ar   
    24   11   71 1    
    25   12   13 ar   
    26   12   82 1    
    27   13   14 ar   
    28   13   15 1    
    29   14   83 1    
    30   15   16 1    
    31   15   84 1    
    32   15   85 1    
    33   16   17 1    
    34   17   18 1    
    35   17   86 1    
    36   17   87 1    
    37   18   19 1    
    38   18   37 1    
    39   18   88 1    
    40   19   20 am   BACKBONE|DICT|INTERRES
    41   19   89 1    
    42   20   21 2    
    43   20   22 1    
    44   22   23 1    
    45   22   24 1    
    46   22   90 1    
    47   23   91 1    
    48   23   92 1    
    49   23   93 1    
    50   24   25 am   BACKBONE|DICT|INTERRES
    51   24   94 1    
    52   25   26 2    
    53   25   27 1    
    54   27   28 1    
    55   27   29 1    
    56   27   95 1    
    57   28   96 1    
    58   28   97 1    
    59   28   98 1    
    60   29   30 am   BACKBONE|DICT|INTERRES
    61   29   99 1    
    62   30   31 2    
    63   30   32 1    
    64   32   33 1    
    65   32   34 1    
    66   32  100 1    
    67   33  101 1    
    68   33  102 1    
    69   33  103 1    
    70   34   35 am   BACKBONE|DICT|INTERRES
    71   34  104 1    
    72   35   36 2    
    73   37   38 2    
    74   37   39 am   BACKBONE|DICT|INTERRES
    75   39   40 1    
    76   39  105 1    
    77   40   41 1    
    78   40   42 1    
    79   40  106 1    
    80   41  107 1    
    81   41  108 1    
    82   41  109 1    
    83   42   43 2    
    84   42   44 am   BACKBONE|DICT|INTERRES
    85   44   45 1    
    86   44  110 1    
    87   45   46 1    
    88   45   47 1    
    89   45  111 1    
    90   46  112 1    
    91   46  113 1    
    92   46  114 1    
    93   47   48 2    
    94   47   49 am   BACKBONE|DICT|INTERRES
    95   49   50 1    
    96   49  115 1    
    97   50   51 1    
    98   50   52 1    
    99   50  116 1    
   100   51  117 1    
   101   51  118 1    
   102   51  119 1    
   103   52   53 2    
   104   52   54 am   BACKBONE|DICT|INTERRES
   105   54   55 1    
   106   54  120 1    
   107   55   56 1    
   108   55   57 1    
   109   55  121 1    
   110   56  122 1    
   111   56  123 1    
   112   56  124 1    
   113   57   58 2    
   114   57   59 am   BACKBONE|DICT|INTERRES
   115   59   60 1    
   116   59  125 1    
   117   60   61 1    
   118   60   62 1    
   119   60  126 1    
   120   61  127 1    
   121   61  128 1    
   122   61  129 1    
   123   62   63 2    
   124   62   64 am   BACKBONE|DICT|INTERRES
   125   64   65 1    
   126   64  130 1    
   127   65   66 1    
   128   65   69 1    
   129   65  131 1    
   130   66   67 am   BACKBONE|DICT|INTERRES
   131   66   68 2    
   132   67  132 1    
   133   67  133 1    
   134   69   70 1    
   135   69  134 1    
   136   69  135 1    
   137   70   71 1    
   138   71  136 1    
   139   71  137 1    
@<TRIPOS>SUBSTRUCTURE
     1 UNK         1 GROUP             0       ****    0 ROOT    
