@<TRIPOS>MOLECULE
3R137
137   139    1
SMALL
USER_CHARGES


@<TRIPOS>ATOM
      1 CA         30.0696   -5.4376    1.1325 C.3       0 UNK        -0.2020 
      2 C          29.6320   -3.9850    1.2467 C.2       0 UNK         0.4855 
      3 O          30.1436   -3.2565    2.0976 O.2       0 UNK        -0.5197 
      4 N          28.6958   -3.5592    0.3931 N.am      1 UNK        -0.4892 
      5 CA         28.1431   -2.2066    0.3619 C.3       1 UNK         0.0835 
      6 C6         29.0449   -1.1776   -0.3860 C.3       12 UNK        -0.0855 
      7 S7         29.4048   -1.5376   -2.1416 S.3       12 UNK        -0.2931 
      8 C8         30.9522   -2.4959   -2.0245 C.3       12 UNK         0.0378 
      9 C9         31.3551   -3.0449   -3.3844 C.ar      12 UNK        -0.0802 
     10 C10        32.6094   -2.7530   -3.9288 C.ar      12 UNK        -0.0944 
     11 C11        32.9417   -3.1888   -5.2148 C.ar      12 UNK        -0.0787 
     12 C12        32.0179   -3.9404   -5.9481 C.ar      12 UNK        -0.0862 
     13 C13        30.7705   -4.2576   -5.4029 C.ar      12 UNK        -0.0733 
     14 C14        30.4547   -3.8256   -4.1142 C.ar      12 UNK        -0.0832 
     15 C15        29.7526   -5.0441   -6.2118 C.3       12 UNK         0.0240 
     16 S16        28.8597   -3.9735   -7.3802 S.3       12 UNK        -0.2522 
     17 C17        27.7624   -3.0091   -6.2828 C.3       12 UNK        -0.0967 
     18 CA         27.1080   -1.8312   -7.0511 C.3       5 UNK         0.0660 
     19 N          25.6833   -1.6674   -6.7438 N.am      5 UNK        -0.4015 
     20 C          24.8189   -1.0464   -7.5600 C.2       4 UNK         0.4946 
     21 O          25.1407   -0.5377   -8.6332 O.2       4 UNK        -0.5353 
     22 CA         23.3608   -0.9407   -7.0893 C.3       4 UNK         0.0277 
     23 CB         22.6388   -2.2907   -7.2301 C.3       4 UNK        -0.1981 
     24 N          23.2543   -0.4591   -5.7125 N.am      4 UNK        -0.4209 
     25 C          23.6147    0.7679   -5.3093 C.2       3 UNK         0.4942 
     26 O          24.0227    1.6478   -6.0663 O.2       3 UNK        -0.5208 
     27 CA         23.5316    1.0542   -3.8004 C.3       3 UNK         0.0250 
     28 CB         22.1536    1.6324   -3.4400 C.3       3 UNK        -0.1990 
     29 N          23.8106   -0.1102   -2.9517 N.am      3 UNK        -0.4232 
     30 C          24.9573   -0.8039   -2.9461 C.2       2 UNK         0.4993 
     31 O          25.9001   -0.5943   -3.7143 O.2       2 UNK        -0.5286 
     32 CA         25.0542   -1.9553   -1.9454 C.3       2 UNK         0.0209 
     33 CB         24.8232   -3.3067   -2.6450 C.3       2 UNK        -0.1931 
     34 N          26.3832   -1.9287   -1.3445 N.am      2 UNK        -0.4546 
     35 C          26.6782   -2.3136   -0.0999 C.2       1 UNK         0.5154 
     36 O          25.8415   -2.7720    0.6812 O.2       1 UNK        -0.5181 
     37 C          27.8831   -0.5077   -6.8928 C.2       5 UNK         0.5014 
     38 O          28.7914   -0.2451   -7.6811 O.2       5 UNK        -0.5248 
     39 N          27.4713    0.3415   -5.9389 N.am      6 UNK        -0.4434 
     40 CA         27.9601    1.7165   -5.7871 C.3       6 UNK         0.0363 
     41 CB         27.3845    2.3281   -4.5019 C.3       6 UNK        -0.1936 
     42 C          27.6636    2.6179   -7.0014 C.2       6 UNK         0.5081 
     43 O          28.3979    3.5791   -7.2227 O.2       6 UNK        -0.5248 
     44 N          26.6201    2.2941   -7.7762 N.am      7 UNK        -0.4718 
     45 CA         26.3270    2.9243   -9.0609 C.3       7 UNK         0.0273 
     46 CB         24.8079    2.9297   -9.3019 C.3       7 UNK        -0.1935 
     47 C          27.0710    2.2199  -10.2069 C.2       7 UNK         0.5018 
     48 O          27.7608    2.8890  -10.9762 O.2       7 UNK        -0.5186 
     49 N          26.9042    0.8933  -10.3156 N.am      8 UNK        -0.4240 
     50 CA         27.3764    0.0867  -11.4448 C.3       8 UNK         0.0235 
     51 CB         26.6843   -1.2863  -11.4232 C.3       8 UNK        -0.2000 
     52 C          28.9021   -0.0835  -11.5163 C.2       8 UNK         0.4941 
     53 O          29.4673    0.0571  -12.6017 O.2       8 UNK        -0.5273 
     54 N          29.5373   -0.4019  -10.3815 N.am      9 UNK        -0.4262 
     55 CA         30.9772   -0.6619  -10.2812 C.3       9 UNK         0.0264 
     56 CB         31.2007   -1.9074   -9.4046 C.3       9 UNK        -0.1955 
     57 C          31.7509    0.5356   -9.7085 C.2       9 UNK         0.5031 
     58 O          32.9808    0.4887   -9.6825 O.2       9 UNK        -0.5390 
     59 N          31.0372    1.5643   -9.2273 N.am      10 UNK        -0.4204 
     60 CA         31.5111    2.7854   -8.5585 C.3       10 UNK         0.0237 
     61 CB         32.5074    3.5778   -9.4284 C.3       10 UNK        -0.1985 
     62 C          32.0644    2.5515   -7.1403 C.2       10 UNK         0.4970 
     63 O          31.8071    3.3706   -6.2578 O.2       10 UNK        -0.4914 
     64 N          32.8013    1.4539   -6.9358 N.am      11 UNK        -0.4285 
     65 CA         33.3219    1.0155   -5.6333 C.3       11 UNK         0.1007 
     66 C          32.2457    0.5203   -4.6276 C.2       11 UNK         0.5703 
     67 N          31.0727    0.0828   -5.0678 N.am      11 UNK        -0.7361 
     68 O          32.4828    0.5503   -3.4225 O.2       11 UNK        -0.4986 
     69 C69        34.4982    0.0106   -5.7790 C.3       12 UNK        -0.0947 
     70 S70        34.1826   -1.3888   -6.9144 S.3       12 UNK        -0.2240 
     71 C71        34.2911   -2.8418   -5.8230 C.3       12 UNK         0.0194 
     72 H72        31.1392   -5.4919    0.9312 H         1 UNK         0.0906 
     73 H73        29.8713   -5.9638    2.0659 H         1 UNK         0.0906 
     74 H74        29.5477   -5.9601    0.3309 H         1 UNK         0.0906 
     75 H75        28.2774   -4.2047   -0.2632 H         1 UNK         0.3140 
     76 H76        28.0720   -1.8561    1.3946 H         1 UNK         0.1085 
     77 H77        28.5873   -0.1879   -0.3370 H         1 UNK         0.0836 
     78 H78        29.9929   -1.0762    0.1449 H         1 UNK         0.0836 
     79 H79        31.7350   -1.8565   -1.6134 H         1 UNK         0.0731 
     80 H80        30.8295   -3.3303   -1.3359 H         1 UNK         0.0731 
     81 H81        33.3132   -2.1533   -3.3681 H         1 UNK         0.1312 
     82 H82        32.2627   -4.2635   -6.9508 H         1 UNK         0.1406 
     83 H83        29.4863   -4.0574   -3.6921 H         1 UNK         0.1631 
     84 H84        29.0389   -5.5486   -5.5586 H         1 UNK         0.0717 
     85 H85        30.2620   -5.8292   -6.7725 H         1 UNK         0.0717 
     86 H86        27.0037   -3.6982   -5.9084 H         1 UNK         0.0934 
     87 H87        28.3077   -2.6607   -5.4041 H         1 UNK         0.0934 
     88 H88        27.1484   -2.0679   -8.1165 H         1 UNK         0.0739 
     89 H89        25.3640   -2.0000   -5.8462 H         1 UNK         0.3093 
     90 H90        22.8580   -0.2183   -7.7364 H         1 UNK         0.0818 
     91 H91        21.5797   -2.2000   -6.9881 H         1 UNK         0.0819 
     92 H92        22.7035   -2.6611   -8.2543 H         1 UNK         0.0819 
     93 H93        23.0670   -3.0545   -6.5799 H         1 UNK         0.0819 
     94 H94        22.9142   -1.1095   -5.0197 H         1 UNK         0.3041 
     95 H95        24.2839    1.8103   -3.5699 H         1 UNK         0.0784 
     96 H96        21.9313    2.5146   -4.0424 H         1 UNK         0.0793 
     97 H97        21.3536    0.9110   -3.6116 H         1 UNK         0.0793 
     98 H98        22.1120    1.9393   -2.3947 H         1 UNK         0.0793 
     99 H99        23.0853   -0.3664   -2.2967 H         1 UNK         0.3024 
    100 H100       24.2986   -1.8152   -1.1687 H         1 UNK         0.1171 
    101 H101       23.8417   -3.3416   -3.1195 H         1 UNK         0.0786 
    102 H102       24.8675   -4.1319   -1.9342 H         1 UNK         0.0786 
    103 H103       25.5701   -3.4928   -3.4180 H         1 UNK         0.0786 
    104 H104       27.1199   -1.5513   -1.9327 H         1 UNK         0.2977 
    105 H105       26.7679    0.0328   -5.2705 H         1 UNK         0.3127 
    106 H106       29.0444    1.6763   -5.6833 H         1 UNK         0.0770 
    107 H107       26.3025    2.4369   -4.5631 H         1 UNK         0.0814 
    108 H108       27.8023    3.3196   -4.3229 H         1 UNK         0.0814 
    109 H109       27.6156    1.7149   -3.6304 H         1 UNK         0.0814 
    110 H110       26.0318    1.5181   -7.5013 H         1 UNK         0.2983 
    111 H111       26.6586    3.9651   -9.0394 H         1 UNK         0.0947 
    112 H112       24.5656    3.4052  -10.2532 H         1 UNK         0.0806 
    113 H113       24.2885    3.4839   -8.5199 H         1 UNK         0.0806 
    114 H114       24.3901    1.9231   -9.3243 H         1 UNK         0.0806 
    115 H115       26.2991    0.4195   -9.6457 H         1 UNK         0.3000 
    116 H116       27.0661    0.5970  -12.3594 H         1 UNK         0.0850 
    117 H117       26.9868   -1.8906  -12.2795 H         1 UNK         0.0810 
    118 H118       25.5997   -1.1841  -11.4657 H         1 UNK         0.0810 
    119 H119       26.9305   -1.8499  -10.5230 H         1 UNK         0.0810 
    120 H120       29.0184   -0.4576   -9.5068 H         1 UNK         0.3040 
    121 H121       31.3921   -0.8708  -11.2693 H         1 UNK         0.0766 
    122 H122       32.2564   -2.1800   -9.3750 H         1 UNK         0.0812 
    123 H123       30.6555   -2.7688   -9.7900 H         1 UNK         0.0812 
    124 H124       30.8830   -1.7439   -8.3741 H         1 UNK         0.0812 
    125 H125       30.0321    1.4614   -9.2591 H         1 UNK         0.3205 
    126 H126       30.6273    3.4127   -8.4479 H         1 UNK         0.0754 
    127 H127       32.7325    4.5435   -8.9740 H         1 UNK         0.0769 
    128 H128       32.0991    3.7734  -10.4200 H         1 UNK         0.0769 
    129 H129       33.4552    3.0534   -9.5519 H         1 UNK         0.0769 
    130 H130       32.9971    0.8502   -7.7280 H         1 UNK         0.2981 
    131 H131       33.7471    1.9057   -5.1655 H         1 UNK         0.0541 
    132 H132       30.8745    0.0290   -6.0539 H         1 UNK         0.3459 
    133 H133       30.4075   -0.2610   -4.3932 H         1 UNK         0.3459 
    134 H134       34.8146   -0.3607   -4.8028 H         1 UNK         0.0612 
    135 H135       35.3644    0.5421   -6.1753 H         1 UNK         0.0612 
    136 H136       34.6478   -3.6883   -6.4116 H         1 UNK         0.0624 
    137 H137       35.0405   -2.6793   -5.0471 H         1 UNK         0.0624 
@<TRIPOS>BOND
     1    1    2 1    
     2    1   72 1    
     3    1   73 1    
     4    1   74 1    
     5    2    3 2    
     6    2    4 am   BACKBONE|DICT|INTERRES
     7    4    5 1    
     8    4   75 1    
     9    5    6 1    
    10    5   35 1    
    11    5   76 1    
    12    6    7 1    
    13    6   77 1    
    14    6   78 1    
    15    7    8 1    
    16    8    9 1    
    17    8   79 1    
    18    8   80 1    
    19    9   10 ar   
    20    9   14 ar   
    21   10   11 ar   
    22   10   81 1    
    23   11   12 ar   
    24   11   71 1    
    25   12   13 ar   
    26   12   82 1    
    27   13   14 ar   
    28   13   15 1    
    29   14   83 1    
    30   15   16 1    
    31   15   84 1    
    32   15   85 1    
    33   16   17 1    
    34   17   18 1    
    35   17   86 1    
    36   17   87 1    
    37   18   19 1    
    38   18   37 1    
    39   18   88 1    
    40   19   20 am   BACKBONE|DICT|INTERRES
    41   19   89 1    
    42   20   21 2    
    43   20   22 1    
    44   22   23 1    
    45   22   24 1    
    46   22   90 1    
    47   23   91 1    
    48   23   92 1    
    49   23   93 1    
    50   24   25 am   BACKBONE|DICT|INTERRES
    51   24   94 1    
    52   25   26 2    
    53   25   27 1    
    54   27   28 1    
    55   27   29 1    
    56   27   95 1    
    57   28   96 1    
    58   28   97 1    
    59   28   98 1    
    60   29   30 am   BACKBONE|DICT|INTERRES
    61   29   99 1    
    62   30   31 2    
    63   30   32 1    
    64   32   33 1    
    65   32   34 1    
    66   32  100 1    
    67   33  101 1    
    68   33  102 1    
    69   33  103 1    
    70   34   35 am   BACKBONE|DICT|INTERRES
    71   34  104 1    
    72   35   36 2    
    73   37   38 2    
    74   37   39 am   BACKBONE|DICT|INTERRES
    75   39   40 1    
    76   39  105 1    
    77   40   41 1    
    78   40   42 1    
    79   40  106 1    
    80   41  107 1    
    81   41  108 1    
    82   41  109 1    
    83   42   43 2    
    84   42   44 am   BACKBONE|DICT|INTERRES
    85   44   45 1    
    86   44  110 1    
    87   45   46 1    
    88   45   47 1    
    89   45  111 1    
    90   46  112 1    
    91   46  113 1    
    92   46  114 1    
    93   47   48 2    
    94   47   49 am   BACKBONE|DICT|INTERRES
    95   49   50 1    
    96   49  115 1    
    97   50   51 1    
    98   50   52 1    
    99   50  116 1    
   100   51  117 1    
   101   51  118 1    
   102   51  119 1    
   103   52   53 2    
   104   52   54 am   BACKBONE|DICT|INTERRES
   105   54   55 1    
   106   54  120 1    
   107   55   56 1    
   108   55   57 1    
   109   55  121 1    
   110   56  122 1    
   111   56  123 1    
   112   56  124 1    
   113   57   58 2    
   114   57   59 am   BACKBONE|DICT|INTERRES
   115   59   60 1    
   116   59  125 1    
   117   60   61 1    
   118   60   62 1    
   119   60  126 1    
   120   61  127 1    
   121   61  128 1    
   122   61  129 1    
   123   62   63 2    
   124   62   64 am   BACKBONE|DICT|INTERRES
   125   64   65 1    
   126   64  130 1    
   127   65   66 1    
   128   65   69 1    
   129   65  131 1    
   130   66   67 am   BACKBONE|DICT|INTERRES
   131   66   68 2    
   132   67  132 1    
   133   67  133 1    
   134   69   70 1    
   135   69  134 1    
   136   69  135 1    
   137   70   71 1    
   138   71  136 1    
   139   71  137 1    
@<TRIPOS>SUBSTRUCTURE
     1 UNK         1 GROUP             0       ****    0 ROOT    
