@<TRIPOS>MOLECULE
3R137
137   139    1
SMALL
USER_CHARGES


@<TRIPOS>ATOM
      1 CA         24.2384   -3.3674   -1.1852 C.3       0 UNK        -0.2020 
      2 C          25.1441   -4.1291   -2.1505 C.2       0 UNK         0.4855 
      3 O          24.6382   -4.8785   -2.9825 O.2       0 UNK        -0.5197 
      4 N          26.4757   -3.9915   -2.0761 N.am      1 UNK        -0.4892 
      5 CA         27.2320   -3.0904   -1.1971 C.3       1 UNK         0.0835 
      6 C6         28.7525   -3.3852   -1.2145 C.3       12 UNK        -0.0855 
      7 S7         29.1787   -5.1541   -1.0144 S.3       12 UNK        -0.2931 
      8 C8         30.8720   -5.2370   -1.7025 C.3       12 UNK         0.0378 
      9 C9         30.9824   -4.5401   -3.0521 C.ar      12 UNK        -0.0802 
     10 C10        31.7137   -3.3526   -3.1706 C.ar      12 UNK        -0.0944 
     11 C11        31.7357   -2.6413   -4.3738 C.ar      12 UNK        -0.0787 
     12 C12        30.9989   -3.1347   -5.4587 C.ar      12 UNK        -0.0862 
     13 C13        30.2869   -4.3339   -5.3663 C.ar      12 UNK        -0.0733 
     14 C14        30.2957   -5.0417   -4.1614 C.ar      12 UNK        -0.0832 
     15 C15        29.5315   -4.8600   -6.5825 C.3       12 UNK         0.0240 
     16 S16        27.7913   -5.3012   -6.2504 S.3       12 UNK        -0.2522 
     17 C17        27.0796   -3.7662   -5.5705 C.3       12 UNK        -0.0967 
     18 CA         26.7873   -2.6844   -6.6471 C.3       5 UNK         0.0660 
     19 N          25.4891   -2.0274   -6.4445 N.am      5 UNK        -0.4015 
     20 C          24.9236   -1.1710   -7.3094 C.2       4 UNK         0.4946 
     21 O          25.4324   -0.8377   -8.3777 O.2       4 UNK        -0.5353 
     22 CA         23.5678   -0.5557   -6.9218 C.3       4 UNK         0.0277 
     23 CB         22.4182   -1.4801   -7.3539 C.3       4 UNK        -0.1981 
     24 N          23.4195   -0.2212   -5.5023 N.am      4 UNK        -0.4209 
     25 C          24.2403    0.5647   -4.7915 C.2       3 UNK         0.4942 
     26 O          25.2862    1.0422   -5.2368 O.2       3 UNK        -0.5208 
     27 CA         23.8519    0.8542   -3.3340 C.3       3 UNK         0.0250 
     28 CB         22.6497    0.0380   -2.8075 C.3       3 UNK        -0.1990 
     29 N          25.0338    0.5964   -2.5270 N.am      3 UNK        -0.4232 
     30 C          25.3524    1.1364   -1.3512 C.2       2 UNK         0.4993 
     31 O          24.6211    1.9115   -0.7320 O.2       2 UNK        -0.5286 
     32 CA         26.7265    0.7250   -0.7784 C.3       2 UNK         0.0209 
     33 CB         27.0286    1.4002    0.5730 C.3       2 UNK        -0.1931 
     34 N          26.8883   -0.7276   -0.6255 N.am      2 UNK        -0.4546 
     35 C          27.0131   -1.6236   -1.6149 C.2       1 UNK         0.5154 
     36 O          26.9820   -1.3360   -2.8175 O.2       1 UNK        -0.5181 
     37 C          27.9262   -1.6514   -6.7331 C.2       5 UNK         0.5014 
     38 O          28.6171   -1.5802   -7.7521 O.2       5 UNK        -0.5248 
     39 N          28.0669   -0.8474   -5.6690 N.am      6 UNK        -0.4434 
     40 CA         29.0460    0.2330   -5.5600 C.3       6 UNK         0.0363 
     41 CB         28.9706    0.8352   -4.1493 C.3       6 UNK        -0.1936 
     42 C          28.8720    1.3220   -6.6301 C.2       6 UNK         0.5081 
     43 O          29.8743    1.8449   -7.1181 O.2       6 UNK        -0.5248 
     44 N          27.6176    1.6299   -6.9880 N.am      7 UNK        -0.4718 
     45 CA         27.2718    2.5718   -8.0520 C.3       7 UNK         0.0273 
     46 CB         25.7700    2.8932   -7.9963 C.3       7 UNK        -0.1935 
     47 C          27.6752    2.0670   -9.4471 C.2       7 UNK         0.5018 
     48 O          28.3155    2.8127  -10.1885 O.2       7 UNK        -0.5186 
     49 N          27.3100    0.8191   -9.7796 N.am      8 UNK        -0.4240 
     50 CA         27.5907    0.1953  -11.0769 C.3       8 UNK         0.0235 
     51 CB         26.7899   -1.1089  -11.2191 C.3       8 UNK        -0.2000 
     52 C          29.0851   -0.0670  -11.3101 C.2       8 UNK         0.4941 
     53 O          29.5767    0.1858  -12.4108 O.2       8 UNK        -0.5273 
     54 N          29.7823   -0.5558  -10.2756 N.am      9 UNK        -0.4262 
     55 CA         31.2242   -0.8157  -10.3133 C.3       9 UNK         0.0264 
     56 CB         31.5642   -1.8416   -9.2266 C.3       9 UNK        -0.1955 
     57 C          32.0822    0.4540  -10.1497 C.2       9 UNK         0.5031 
     58 O          33.2818    0.3990  -10.4219 O.2       9 UNK        -0.5390 
     59 N          31.4665    1.5567   -9.6970 N.am      10 UNK        -0.4204 
     60 CA         32.0392    2.8855   -9.4417 C.3       10 UNK         0.0237 
     61 CB         32.6516    3.4915  -10.7225 C.3       10 UNK        -0.1985 
     62 C          33.0012    2.9573   -8.2374 C.2       10 UNK         0.4970 
     63 O          33.6209    4.0023   -8.0312 O.2       10 UNK        -0.4914 
     64 N          33.0904    1.8822   -7.4447 N.am      11 UNK        -0.4285 
     65 CA         33.8096    1.8303   -6.1619 C.3       11 UNK         0.1007 
     66 C          33.0454    2.4759   -4.9708 C.2       11 UNK         0.5703 
     67 N          31.7844    2.8632   -5.1159 N.am      11 UNK        -0.7361 
     68 O          33.6195    2.6552   -3.8995 O.2       11 UNK        -0.4986 
     69 C69        34.3389    0.4057   -5.8331 C.3       12 UNK        -0.0947 
     70 S70        33.1525   -0.9487   -6.1277 S.3       12 UNK        -0.2240 
     71 C71        32.5395   -1.3390   -4.4542 C.3       12 UNK         0.0194 
     72 H72        24.5453   -3.5185   -0.1511 H         1 UNK         0.0906 
     73 H73        24.2406   -2.3007   -1.4026 H         1 UNK         0.0906 
     74 H74        23.2104   -3.7186   -1.2737 H         1 UNK         0.0906 
     75 H75        27.0494   -4.5353   -2.7037 H         1 UNK         0.3140 
     76 H76        26.8742   -3.2337   -0.1760 H         1 UNK         0.1085 
     77 H77        29.1679   -3.0205   -2.1537 H         1 UNK         0.0836 
     78 H78        29.2591   -2.8241   -0.4267 H         1 UNK         0.0836 
     79 H79        31.1639   -6.2827   -1.8089 H         1 UNK         0.0731 
     80 H80        31.5645   -4.7971   -0.9831 H         1 UNK         0.0731 
     81 H81        32.2465   -2.9648   -2.3129 H         1 UNK         0.1312 
     82 H82        30.9769   -2.5890   -6.3881 H         1 UNK         0.1406 
     83 H83        29.7330   -5.9614   -4.0731 H         1 UNK         0.1631 
     84 H84        30.0474   -5.7476   -6.9506 H         1 UNK         0.0717 
     85 H85        29.5569   -4.1382   -7.3999 H         1 UNK         0.0717 
     86 H86        26.1471   -4.0725   -5.0959 H         1 UNK         0.0934 
     87 H87        27.7021   -3.3990   -4.7517 H         1 UNK         0.0934 
     88 H88        26.7240   -3.1709   -7.6232 H         1 UNK         0.0739 
     89 H89        25.0028   -2.2298   -5.5842 H         1 UNK         0.3093 
     90 H90        23.4716    0.3791   -7.4774 H         1 UNK         0.0818 
     91 H91        21.4482   -1.0050   -7.2059 H         1 UNK         0.0819 
     92 H92        22.4947   -1.7285   -8.4137 H         1 UNK         0.0819 
     93 H93        22.4218   -2.4188   -6.7985 H         1 UNK         0.0819 
     94 H94        22.5907   -0.5719   -5.0443 H         1 UNK         0.3041 
     95 H95        23.6106    1.9174   -3.2749 H         1 UNK         0.0784 
     96 H96        21.7366    0.2806   -3.3524 H         1 UNK         0.0793 
     97 H97        22.8158   -1.0366   -2.8887 H         1 UNK         0.0793 
     98 H98        22.4545    0.2601   -1.7581 H         1 UNK         0.0793 
     99 H99        25.7195   -0.0292   -2.9465 H         1 UNK         0.3024 
    100 H100       27.4765    1.0738   -1.4914 H         1 UNK         0.1171 
    101 H101       28.0329    1.1596    0.9223 H         1 UNK         0.0786 
    102 H102       26.9709    2.4865    0.4899 H         1 UNK         0.0786 
    103 H103       26.3210    1.0940    1.3446 H         1 UNK         0.0786 
    104 H104       26.9111   -1.0604    0.3280 H         1 UNK         0.2977 
    105 H105       27.4654   -0.9852   -4.8644 H         1 UNK         0.3127 
    106 H106       30.0368   -0.2019   -5.6999 H         1 UNK         0.0770 
    107 H107       27.9713    1.2137   -3.9313 H         1 UNK         0.0814 
    108 H108       29.6637    1.6660   -4.0308 H         1 UNK         0.0814 
    109 H109       29.2268    0.0949   -3.3914 H         1 UNK         0.0814 
    110 H110       26.8466    1.1948   -6.4890 H         1 UNK         0.2983 
    111 H111       27.8210    3.4975   -7.8658 H         1 UNK         0.0947 
    112 H112       25.4974    3.6204   -8.7622 H         1 UNK         0.0806 
    113 H113       25.4915    3.3173   -7.0314 H         1 UNK         0.0806 
    114 H114       25.1604    2.0043   -8.1577 H         1 UNK         0.0806 
    115 H115       26.7643    0.2659   -9.1210 H         1 UNK         0.3000 
    116 H116       27.2532    0.8838  -11.8547 H         1 UNK         0.0850 
    117 H117       26.9807   -1.5840  -12.1823 H         1 UNK         0.0810 
    118 H118       25.7176   -0.9233  -11.1561 H         1 UNK         0.0810 
    119 H119       27.0504   -1.8278  -10.4408 H         1 UNK         0.0810 
    120 H120       29.2955   -0.7816   -9.4100 H         1 UNK         0.3040 
    121 H121       31.4772   -1.2541  -11.2811 H         1 UNK         0.0766 
    122 H122       31.2863   -1.4599   -8.2468 H         1 UNK         0.0812 
    123 H123       32.6319   -2.0646   -9.2065 H         1 UNK         0.0812 
    124 H124       31.0346   -2.7813   -9.3832 H         1 UNK         0.0812 
    125 H125       30.4858    1.4738   -9.4606 H         1 UNK         0.3205 
    126 H126       31.1879    3.5099   -9.1660 H         1 UNK         0.0754 
    127 H127       32.9159    4.5390  -10.5726 H         1 UNK         0.0769 
    128 H128       31.9476    3.4531  -11.5539 H         1 UNK         0.0769 
    129 H129       33.5598    2.9701  -11.0256 H         1 UNK         0.0769 
    130 H130       32.5288    1.0733   -7.6638 H         1 UNK         0.2981 
    131 H131       34.6981    2.4546   -6.2738 H         1 UNK         0.0541 
    132 H132       31.2770    2.6710   -5.9726 H         1 UNK         0.3459 
    133 H133       31.3201    3.3102   -4.3429 H         1 UNK         0.3459 
    134 H134       34.7276    0.3455   -4.8150 H         1 UNK         0.0612 
    135 H135       35.1971    0.2015   -6.4749 H         1 UNK         0.0612 
    136 H136       33.3971   -1.4015   -3.7827 H         1 UNK         0.0624 
    137 H137       31.9212   -0.5139   -4.0990 H         1 UNK         0.0624 
@<TRIPOS>BOND
     1    1    2 1    
     2    1   72 1    
     3    1   73 1    
     4    1   74 1    
     5    2    3 2    
     6    2    4 am   BACKBONE|DICT|INTERRES
     7    4    5 1    
     8    4   75 1    
     9    5    6 1    
    10    5   35 1    
    11    5   76 1    
    12    6    7 1    
    13    6   77 1    
    14    6   78 1    
    15    7    8 1    
    16    8    9 1    
    17    8   79 1    
    18    8   80 1    
    19    9   10 ar   
    20    9   14 ar   
    21   10   11 ar   
    22   10   81 1    
    23   11   12 ar   
    24   11   71 1    
    25   12   13 ar   
    26   12   82 1    
    27   13   14 ar   
    28   13   15 1    
    29   14   83 1    
    30   15   16 1    
    31   15   84 1    
    32   15   85 1    
    33   16   17 1    
    34   17   18 1    
    35   17   86 1    
    36   17   87 1    
    37   18   19 1    
    38   18   37 1    
    39   18   88 1    
    40   19   20 am   BACKBONE|DICT|INTERRES
    41   19   89 1    
    42   20   21 2    
    43   20   22 1    
    44   22   23 1    
    45   22   24 1    
    46   22   90 1    
    47   23   91 1    
    48   23   92 1    
    49   23   93 1    
    50   24   25 am   BACKBONE|DICT|INTERRES
    51   24   94 1    
    52   25   26 2    
    53   25   27 1    
    54   27   28 1    
    55   27   29 1    
    56   27   95 1    
    57   28   96 1    
    58   28   97 1    
    59   28   98 1    
    60   29   30 am   BACKBONE|DICT|INTERRES
    61   29   99 1    
    62   30   31 2    
    63   30   32 1    
    64   32   33 1    
    65   32   34 1    
    66   32  100 1    
    67   33  101 1    
    68   33  102 1    
    69   33  103 1    
    70   34   35 am   BACKBONE|DICT|INTERRES
    71   34  104 1    
    72   35   36 2    
    73   37   38 2    
    74   37   39 am   BACKBONE|DICT|INTERRES
    75   39   40 1    
    76   39  105 1    
    77   40   41 1    
    78   40   42 1    
    79   40  106 1    
    80   41  107 1    
    81   41  108 1    
    82   41  109 1    
    83   42   43 2    
    84   42   44 am   BACKBONE|DICT|INTERRES
    85   44   45 1    
    86   44  110 1    
    87   45   46 1    
    88   45   47 1    
    89   45  111 1    
    90   46  112 1    
    91   46  113 1    
    92   46  114 1    
    93   47   48 2    
    94   47   49 am   BACKBONE|DICT|INTERRES
    95   49   50 1    
    96   49  115 1    
    97   50   51 1    
    98   50   52 1    
    99   50  116 1    
   100   51  117 1    
   101   51  118 1    
   102   51  119 1    
   103   52   53 2    
   104   52   54 am   BACKBONE|DICT|INTERRES
   105   54   55 1    
   106   54  120 1    
   107   55   56 1    
   108   55   57 1    
   109   55  121 1    
   110   56  122 1    
   111   56  123 1    
   112   56  124 1    
   113   57   58 2    
   114   57   59 am   BACKBONE|DICT|INTERRES
   115   59   60 1    
   116   59  125 1    
   117   60   61 1    
   118   60   62 1    
   119   60  126 1    
   120   61  127 1    
   121   61  128 1    
   122   61  129 1    
   123   62   63 2    
   124   62   64 am   BACKBONE|DICT|INTERRES
   125   64   65 1    
   126   64  130 1    
   127   65   66 1    
   128   65   69 1    
   129   65  131 1    
   130   66   67 am   BACKBONE|DICT|INTERRES
   131   66   68 2    
   132   67  132 1    
   133   67  133 1    
   134   69   70 1    
   135   69  134 1    
   136   69  135 1    
   137   70   71 1    
   138   71  136 1    
   139   71  137 1    
@<TRIPOS>SUBSTRUCTURE
     1 UNK         1 GROUP             0       ****    0 ROOT    
