@<TRIPOS>MOLECULE
3R137
137   139    1
SMALL
USER_CHARGES


@<TRIPOS>ATOM
      1 CA         25.5209   -6.4638   -0.7125 C.3       0 UNK        -0.2020 
      2 C          25.3740   -5.1759    0.0834 C.2       0 UNK         0.4855 
      3 O          24.4657   -5.0640    0.9068 O.2       0 UNK        -0.5197 
      4 N          26.2607   -4.2015   -0.1559 N.am      1 UNK        -0.4892 
      5 CA         26.2560   -2.8813    0.4897 C.3       1 UNK         0.0835 
      6 C6         27.6534   -2.2128    0.4304 C.3       12 UNK        -0.0855 
      7 S7         28.3424   -2.0565   -1.2575 S.3       12 UNK        -0.2931 
      8 C8         29.9072   -2.9680   -1.0997 C.3       12 UNK         0.0378 
      9 C9         30.8170   -2.7421   -2.3000 C.ar      12 UNK        -0.0802 
     10 C10        31.7157   -1.6702   -2.3025 C.ar      12 UNK        -0.0944 
     11 C11        32.6136   -1.4932   -3.3602 C.ar      12 UNK        -0.0787 
     12 C12        32.6076   -2.4061   -4.4189 C.ar      12 UNK        -0.0862 
     13 C13        31.6873   -3.4572   -4.4518 C.ar      12 UNK        -0.0733 
     14 C14        30.7940   -3.6223   -3.3871 C.ar      12 UNK        -0.0832 
     15 C15        31.6912   -4.4319   -5.6231 C.3       12 UNK         0.0240 
     16 S16        31.1136   -3.6648   -7.1729 S.3       12 UNK        -0.2522 
     17 C17        29.3333   -3.4641   -6.8349 C.3       12 UNK        -0.0967 
     18 CA         28.6930   -2.2945   -7.6325 C.3       5 UNK         0.0660 
     19 N          27.2302   -2.3530   -7.6905 N.am      5 UNK        -0.4015 
     20 C          26.3915   -2.3625   -6.6476 C.2       4 UNK         0.4946 
     21 O          26.7507   -2.4548   -5.4717 O.2       4 UNK        -0.5353 
     22 CA         24.8962   -2.2126   -6.9711 C.3       4 UNK         0.0277 
     23 CB         24.1675   -3.5549   -6.7980 C.3       4 UNK        -0.1981 
     24 N          24.2686   -1.2068   -6.1128 N.am      4 UNK        -0.4209 
     25 C          24.6462    0.0774   -6.0131 C.2       3 UNK         0.4942 
     26 O          25.5136    0.5935   -6.7208 O.2       3 UNK        -0.5208 
     27 CA         23.9499    0.9281   -4.9336 C.3       3 UNK         0.0250 
     28 CB         22.7802    1.7156   -5.5450 C.3       3 UNK        -0.1990 
     29 N          23.4652    0.1285   -3.8010 N.am      3 UNK        -0.4232 
     30 C          24.2688   -0.4899   -2.9230 C.2       2 UNK         0.4993 
     31 O          25.4898   -0.3277   -2.9005 O.2       2 UNK        -0.5286 
     32 CA         23.5953   -1.4621   -1.9348 C.3       2 UNK         0.0209 
     33 CB         22.6435   -2.4417   -2.6510 C.3       2 UNK        -0.1931 
     34 N          24.6012   -2.2521   -1.2238 N.am      2 UNK        -0.4546 
     35 C          25.1432   -1.9450   -0.0387 C.2       1 UNK         0.5154 
     36 O          24.7901   -0.9803    0.6431 O.2       1 UNK        -0.5181 
     37 C          29.1826   -0.9050   -7.1717 C.2       5 UNK         0.5014 
     38 O          29.7793   -0.1841   -7.9735 O.2       5 UNK        -0.5248 
     39 N          28.9182   -0.5524   -5.9070 N.am      6 UNK        -0.4434 
     40 CA         29.4734    0.6128   -5.2146 C.3       6 UNK         0.0363 
     41 CB         29.0038    0.6227   -3.7556 C.3       6 UNK        -0.1936 
     42 C          29.1918    1.9678   -5.8788 C.2       6 UNK         0.5081 
     43 O          30.1012    2.7932   -5.9575 O.2       6 UNK        -0.5248 
     44 N          27.9577    2.1712   -6.3533 N.am      7 UNK        -0.4718 
     45 CA         27.5632    3.3623   -7.1056 C.3       7 UNK         0.0273 
     46 CB         26.2508    3.9314   -6.5408 C.3       7 UNK        -0.1935 
     47 C          27.4221    3.0232   -8.5927 C.2       7 UNK         0.5018 
     48 O          27.9581    3.7507   -9.4279 O.2       7 UNK        -0.5186 
     49 N          26.7290    1.9151   -8.8947 N.am      8 UNK        -0.4240 
     50 CA         26.3688    1.4799  -10.2478 C.3       8 UNK         0.0235 
     51 CB         25.4622    0.2429  -10.1575 C.3       8 UNK        -0.2000 
     52 C          27.5603    1.2037  -11.1812 C.2       8 UNK         0.4941 
     53 O          27.4398    1.4485  -12.3823 O.2       8 UNK        -0.5273 
     54 N          28.6762    0.7124  -10.6262 N.am      9 UNK        -0.4262 
     55 CA         29.9223    0.4550  -11.3537 C.3       9 UNK         0.0264 
     56 CB         30.2175   -1.0565  -11.3217 C.3       9 UNK        -0.1955 
     57 C          31.1002    1.2565  -10.7740 C.2       9 UNK         0.5031 
     58 O          32.2374    1.0055  -11.1747 O.2       9 UNK        -0.5390 
     59 N          30.8337    2.1697   -9.8249 N.am      10 UNK        -0.4204 
     60 CA         31.8083    2.9513   -9.0497 C.3       10 UNK         0.0237 
     61 CB         32.4306    4.0534   -9.9330 C.3       10 UNK        -0.1985 
     62 C          32.8683    2.0726   -8.3466 C.2       10 UNK         0.4970 
     63 O          34.0535    2.4094   -8.3689 O.2       10 UNK        -0.4914 
     64 N          32.4187    0.9430   -7.7822 N.am      11 UNK        -0.4285 
     65 CA         33.2256   -0.1494   -7.2118 C.3       11 UNK         0.1007 
     66 C          33.9743   -1.0267   -8.2619 C.2       11 UNK         0.5703 
     67 N          33.8032   -0.8337   -9.5642 N.am      11 UNK        -0.7361 
     68 O          34.7090   -1.9374   -7.8868 O.2       11 UNK        -0.4986 
     69 C69        34.1624    0.2857   -6.0425 C.3       12 UNK        -0.0947 
     70 S70        33.2718    0.9319   -4.5869 S.3       12 UNK        -0.2240 
     71 C71        33.6155   -0.3443   -3.3285 C.3       12 UNK         0.0194 
     72 H72        26.3661   -6.4256   -1.3996 H         1 UNK         0.0906 
     73 H73        25.6708   -7.3064   -0.0380 H         1 UNK         0.0906 
     74 H74        24.6188   -6.6499   -1.2947 H         1 UNK         0.0906 
     75 H75        26.9862   -4.3360   -0.8467 H         1 UNK         0.3140 
     76 H76        26.0248   -3.0373    1.5462 H         1 UNK         0.1085 
     77 H77        27.6241   -1.2197    0.8833 H         1 UNK         0.0836 
     78 H78        28.3445   -2.7876    1.0487 H         1 UNK         0.0836 
     79 H79        29.6964   -4.0314   -0.9769 H         1 UNK         0.0731 
     80 H80        30.4216   -2.6504   -0.1912 H         1 UNK         0.0731 
     81 H81        31.7266   -0.9835   -1.4670 H         1 UNK         0.1312 
     82 H82        33.3182   -2.3033   -5.2255 H         1 UNK         0.1406 
     83 H83        30.0934   -4.4464   -3.3931 H         1 UNK         0.1631 
     84 H84        31.0790   -5.3086   -5.4058 H         1 UNK         0.0717 
     85 H85        32.7070   -4.8000   -5.7741 H         1 UNK         0.0717 
     86 H86        28.8452   -4.4029   -7.1011 H         1 UNK         0.0934 
     87 H87        29.1748   -3.3419   -5.7629 H         1 UNK         0.0934 
     88 H88        29.0110   -2.4050   -8.6702 H         1 UNK         0.0739 
     89 H89        26.8379   -2.2953   -8.6188 H         1 UNK         0.3093 
     90 H90        24.7784   -1.8828   -8.0047 H         1 UNK         0.0818 
     91 H91        23.1108   -3.4708   -7.0528 H         1 UNK         0.0819 
     92 H92        24.5963   -4.3185   -7.4484 H         1 UNK         0.0819 
     93 H93        24.2390   -3.9234   -5.7736 H         1 UNK         0.0819 
     94 H94        23.5634   -1.5396   -5.4744 H         1 UNK         0.3041 
     95 H95        24.6857    1.6427   -4.5581 H         1 UNK         0.0784 
     96 H96        23.1150    2.3248   -6.3856 H         1 UNK         0.0793 
     97 H97        21.9962    1.0543   -5.9162 H         1 UNK         0.0793 
     98 H98        22.3333    2.3916   -4.8157 H         1 UNK         0.0793 
     99 H99        22.4675   -0.0177   -3.7414 H         1 UNK         0.3024 
    100 H100       23.0199   -0.8672   -1.2217 H         1 UNK         0.1171 
    101 H101       21.7961   -1.9258   -3.1031 H         1 UNK         0.0786 
    102 H102       23.1529   -2.9976   -3.4394 H         1 UNK         0.0786 
    103 H103       22.2291   -3.1678   -1.9508 H         1 UNK         0.0786 
    104 H104       25.0063   -3.0256   -1.7299 H         1 UNK         0.2977 
    105 H105       28.3341   -1.1795   -5.3608 H         1 UNK         0.3127 
    106 H106       30.5545    0.4778   -5.2143 H         1 UNK         0.0770 
    107 H107       27.9163    0.6471   -3.6788 H         1 UNK         0.0814 
    108 H108       29.3940    1.4895   -3.2207 H         1 UNK         0.0814 
    109 H109       29.3595   -0.2623   -3.2328 H         1 UNK         0.0814 
    110 H110       27.2646    1.4337   -6.2701 H         1 UNK         0.2983 
    111 H111       28.3224    4.1429   -7.0176 H         1 UNK         0.0947 
    112 H112       25.9692    4.8465   -7.0632 H         1 UNK         0.0806 
    113 H113       26.3509    4.1796   -5.4841 H         1 UNK         0.0806 
    114 H114       25.4207    3.2335   -6.6421 H         1 UNK         0.0806 
    115 H115       26.3107    1.3922   -8.1266 H         1 UNK         0.3000 
    116 H116       25.7908    2.2900  -10.6976 H         1 UNK         0.0850 
    117 H117       25.1179   -0.0621  -11.1468 H         1 UNK         0.0810 
    118 H118       24.5764    0.4403   -9.5530 H         1 UNK         0.0810 
    119 H119       25.9876   -0.6044   -9.7198 H         1 UNK         0.0810 
    120 H120       28.7017    0.5233   -9.6298 H         1 UNK         0.3040 
    121 H121       29.8290    0.7601  -12.3978 H         1 UNK         0.0766 
    122 H122       30.4580   -1.4002  -10.3155 H         1 UNK         0.0812 
    123 H123       31.0703   -1.3008  -11.9563 H         1 UNK         0.0812 
    124 H124       29.3693   -1.6368  -11.6847 H         1 UNK         0.0812 
    125 H125       29.8631    2.3360   -9.5958 H         1 UNK         0.3205 
    126 H126       31.2463    3.4458   -8.2569 H         1 UNK         0.0754 
    127 H127       33.0718    4.7116   -9.3453 H         1 UNK         0.0769 
    128 H128       31.6611    4.6762  -10.3893 H         1 UNK         0.0769 
    129 H129       33.0404    3.6329  -10.7335 H         1 UNK         0.0769 
    130 H130       31.4270    0.7316   -7.8580 H         1 UNK         0.2981 
    131 H131       32.4804   -0.8252   -6.7941 H         1 UNK         0.0541 
    132 H132       34.2947   -1.4311  -10.2087 H         1 UNK         0.3459 
    133 H133       33.2169   -0.0885   -9.9265 H         1 UNK         0.3459 
    134 H134       34.8693    1.0465   -6.3726 H         1 UNK         0.0612 
    135 H135       34.7850   -0.5478   -5.7167 H         1 UNK         0.0612 
    136 H136       34.6284   -0.7315   -3.4446 H         1 UNK         0.0624 
    137 H137       33.5958    0.1404   -2.3514 H         1 UNK         0.0624 
@<TRIPOS>BOND
     1    1    2 1    
     2    1   72 1    
     3    1   73 1    
     4    1   74 1    
     5    2    3 2    
     6    2    4 am   BACKBONE|DICT|INTERRES
     7    4    5 1    
     8    4   75 1    
     9    5    6 1    
    10    5   35 1    
    11    5   76 1    
    12    6    7 1    
    13    6   77 1    
    14    6   78 1    
    15    7    8 1    
    16    8    9 1    
    17    8   79 1    
    18    8   80 1    
    19    9   10 ar   
    20    9   14 ar   
    21   10   11 ar   
    22   10   81 1    
    23   11   12 ar   
    24   11   71 1    
    25   12   13 ar   
    26   12   82 1    
    27   13   14 ar   
    28   13   15 1    
    29   14   83 1    
    30   15   16 1    
    31   15   84 1    
    32   15   85 1    
    33   16   17 1    
    34   17   18 1    
    35   17   86 1    
    36   17   87 1    
    37   18   19 1    
    38   18   37 1    
    39   18   88 1    
    40   19   20 am   BACKBONE|DICT|INTERRES
    41   19   89 1    
    42   20   21 2    
    43   20   22 1    
    44   22   23 1    
    45   22   24 1    
    46   22   90 1    
    47   23   91 1    
    48   23   92 1    
    49   23   93 1    
    50   24   25 am   BACKBONE|DICT|INTERRES
    51   24   94 1    
    52   25   26 2    
    53   25   27 1    
    54   27   28 1    
    55   27   29 1    
    56   27   95 1    
    57   28   96 1    
    58   28   97 1    
    59   28   98 1    
    60   29   30 am   BACKBONE|DICT|INTERRES
    61   29   99 1    
    62   30   31 2    
    63   30   32 1    
    64   32   33 1    
    65   32   34 1    
    66   32  100 1    
    67   33  101 1    
    68   33  102 1    
    69   33  103 1    
    70   34   35 am   BACKBONE|DICT|INTERRES
    71   34  104 1    
    72   35   36 2    
    73   37   38 2    
    74   37   39 am   BACKBONE|DICT|INTERRES
    75   39   40 1    
    76   39  105 1    
    77   40   41 1    
    78   40   42 1    
    79   40  106 1    
    80   41  107 1    
    81   41  108 1    
    82   41  109 1    
    83   42   43 2    
    84   42   44 am   BACKBONE|DICT|INTERRES
    85   44   45 1    
    86   44  110 1    
    87   45   46 1    
    88   45   47 1    
    89   45  111 1    
    90   46  112 1    
    91   46  113 1    
    92   46  114 1    
    93   47   48 2    
    94   47   49 am   BACKBONE|DICT|INTERRES
    95   49   50 1    
    96   49  115 1    
    97   50   51 1    
    98   50   52 1    
    99   50  116 1    
   100   51  117 1    
   101   51  118 1    
   102   51  119 1    
   103   52   53 2    
   104   52   54 am   BACKBONE|DICT|INTERRES
   105   54   55 1    
   106   54  120 1    
   107   55   56 1    
   108   55   57 1    
   109   55  121 1    
   110   56  122 1    
   111   56  123 1    
   112   56  124 1    
   113   57   58 2    
   114   57   59 am   BACKBONE|DICT|INTERRES
   115   59   60 1    
   116   59  125 1    
   117   60   61 1    
   118   60   62 1    
   119   60  126 1    
   120   61  127 1    
   121   61  128 1    
   122   61  129 1    
   123   62   63 2    
   124   62   64 am   BACKBONE|DICT|INTERRES
   125   64   65 1    
   126   64  130 1    
   127   65   66 1    
   128   65   69 1    
   129   65  131 1    
   130   66   67 am   BACKBONE|DICT|INTERRES
   131   66   68 2    
   132   67  132 1    
   133   67  133 1    
   134   69   70 1    
   135   69  134 1    
   136   69  135 1    
   137   70   71 1    
   138   71  136 1    
   139   71  137 1    
@<TRIPOS>SUBSTRUCTURE
     1 UNK         1 GROUP             0       ****    0 ROOT    
