@<TRIPOS>MOLECULE
3R137
137   139    1
SMALL
USER_CHARGES


@<TRIPOS>ATOM
      1 CA         30.0899    0.2688   -1.4033 C.3       0 UNK        -0.2020 
      2 C          29.0911   -0.8181   -1.0364 C.2       0 UNK         0.4855 
      3 O          28.3512   -0.6659   -0.0639 O.2       0 UNK        -0.5197 
      4 N          29.0527   -1.9003   -1.8239 N.am      1 UNK        -0.4892 
      5 CA         28.2058   -3.1008   -1.7025 C.3       1 UNK         0.0835 
      6 C6         28.4055   -3.9207   -0.3973 C.3       12 UNK        -0.0855 
      7 S7         30.1469   -4.2403    0.0623 S.3       12 UNK        -0.2931 
      8 C8         30.6451   -5.5734   -1.0797 C.3       12 UNK         0.0378 
      9 C9         30.9938   -5.0307   -2.4591 C.ar      12 UNK        -0.0802 
     10 C10        32.0765   -4.1587   -2.6145 C.ar      12 UNK        -0.0944 
     11 C11        32.3708   -3.6097   -3.8649 C.ar      12 UNK        -0.0787 
     12 C12        31.5747   -3.9363   -4.9658 C.ar      12 UNK        -0.0862 
     13 C13        30.4911   -4.8074   -4.8239 C.ar      12 UNK        -0.0733 
     14 C14        30.2233   -5.3754   -3.5744 C.ar      12 UNK        -0.0832 
     15 C15        29.5893   -5.1087   -6.0126 C.3       12 UNK         0.0240 
     16 S16        27.9280   -4.3906   -5.7954 S.3       12 UNK        -0.2522 
     17 C17        28.2749   -2.5980   -5.7337 C.3       12 UNK        -0.0967 
     18 CA         27.4269   -1.8016   -6.7533 C.3       5 UNK         0.0660 
     19 N          25.9914   -1.9152   -6.4933 N.am      5 UNK        -0.4015 
     20 C          25.0691   -2.2219   -7.4148 C.2       4 UNK         0.4946 
     21 O          25.3321   -2.5290   -8.5779 O.2       4 UNK        -0.5353 
     22 CA         23.5906   -2.1741   -6.9822 C.3       4 UNK         0.0277 
     23 CB         23.1011   -3.5819   -6.6052 C.3       4 UNK        -0.1981 
     24 N          23.3101   -1.2571   -5.8735 N.am      4 UNK        -0.4209 
     25 C          23.5466    0.0627   -5.8761 C.2       3 UNK         0.4942 
     26 O          24.0238    0.6760   -6.8297 O.2       3 UNK        -0.5208 
     27 CA         23.2693    0.8180   -4.5655 C.3       3 UNK         0.0250 
     28 CB         21.8130    1.3075   -4.5292 C.3       3 UNK        -0.1990 
     29 N          23.5637    0.0595   -3.3405 N.am      3 UNK        -0.4232 
     30 C          24.7199   -0.5591   -3.0555 C.2       2 UNK         0.4993 
     31 O          25.6673   -0.6232   -3.8452 O.2       2 UNK        -0.5286 
     32 CA         24.8287   -1.1875   -1.6531 C.3       2 UNK         0.0209 
     33 CB         23.7005   -2.2061   -1.3773 C.3       2 UNK        -0.1931 
     34 N          26.1537   -1.7731   -1.4106 N.am      2 UNK        -0.4546 
     35 C          26.7081   -2.8512   -1.9820 C.2       1 UNK         0.5154 
     36 O          26.1021   -3.6284   -2.7204 O.2       1 UNK        -0.5181 
     37 C          27.8364   -0.3187   -6.7497 C.2       5 UNK         0.5014 
     38 O          28.5645    0.1072   -7.6489 O.2       5 UNK        -0.5248 
     39 N          27.3715    0.4422   -5.7468 N.am      6 UNK        -0.4434 
     40 CA         27.7654    1.8276   -5.4832 C.3       6 UNK         0.0363 
     41 CB         27.1978    2.2788   -4.1285 C.3       6 UNK        -0.1936 
     42 C          27.3854    2.8230   -6.5918 C.2       6 UNK         0.5081 
     43 O          28.1546    3.7492   -6.8447 O.2       6 UNK        -0.5248 
     44 N          26.2302    2.6205   -7.2408 N.am      7 UNK        -0.4718 
     45 CA         25.7725    3.4477   -8.3640 C.3       7 UNK         0.0273 
     46 CB         24.2427    3.5962   -8.2922 C.3       7 UNK        -0.1935 
     47 C          26.1992    2.8808   -9.7311 C.2       7 UNK         0.5018 
     48 O          25.9445    3.5289  -10.7475 O.2       7 UNK        -0.5186 
     49 N          26.8108    1.6891   -9.7427 N.am      8 UNK        -0.4240 
     50 CA         27.2687    0.9847  -10.9362 C.3       8 UNK         0.0235 
     51 CB         26.7930   -0.4805  -10.8668 C.3       8 UNK        -0.2000 
     52 C          28.7926    1.1345  -11.0487 C.2       8 UNK         0.4941 
     53 O          29.2621    2.1608  -11.5415 O.2       8 UNK        -0.5273 
     54 N          29.5371    0.1156  -10.5983 N.am      9 UNK        -0.4262 
     55 CA         31.0006    0.0659  -10.6175 C.3       9 UNK         0.0264 
     56 CB         31.4572   -1.3732  -10.3254 C.3       9 UNK        -0.1955 
     57 C          31.6670    1.0420   -9.6335 C.2       9 UNK         0.5031 
     58 O          32.8121    1.4336   -9.8676 O.2       9 UNK        -0.5390 
     59 N          30.9693    1.3793   -8.5360 N.am      10 UNK        -0.4204 
     60 CA         31.3937    2.2900   -7.4614 C.3       10 UNK         0.0237 
     61 CB         31.4764    3.7391   -7.9857 C.3       10 UNK        -0.1985 
     62 C          32.6821    1.8526   -6.7328 C.2       10 UNK         0.4970 
     63 O          33.3535    2.6903   -6.1280 O.2       10 UNK        -0.4914 
     64 N          33.0065    0.5551   -6.8203 N.am      11 UNK        -0.4285 
     65 CA         34.2541   -0.0708   -6.3538 C.3       11 UNK         0.1007 
     66 C          35.5371    0.4417   -7.0794 C.2       11 UNK         0.5703 
     67 N          35.4326    1.0252   -8.2694 N.am      11 UNK        -0.7361 
     68 O          36.6479    0.2798   -6.5790 O.2       11 UNK        -0.4986 
     69 C69        34.3830   -0.0988   -4.8024 C.3       12 UNK        -0.0947 
     70 S70        32.9624   -0.9258   -4.0117 S.3       12 UNK        -0.2240 
     71 C71        33.5362   -2.6505   -4.0320 C.3       12 UNK         0.0194 
     72 H72        30.5562    0.0844   -2.3707 H         1 UNK         0.0906 
     73 H73        29.5923    1.2372   -1.4495 H         1 UNK         0.0906 
     74 H74        30.8763    0.3241   -0.6511 H         1 UNK         0.0906 
     75 H75        29.7060   -1.9434   -2.5937 H         1 UNK         0.3140 
     76 H76        28.5216   -3.7327   -2.5278 H         1 UNK         0.1085 
     77 H77        27.9455   -3.3975    0.4432 H         1 UNK         0.0836 
     78 H78        27.8867   -4.8786   -0.4699 H         1 UNK         0.0836 
     79 H79        31.5214   -6.0772   -0.6696 H         1 UNK         0.0731 
     80 H80        29.8564   -6.3255   -1.1343 H         1 UNK         0.0731 
     81 H81        32.6752   -3.8905   -1.7544 H         1 UNK         0.1312 
     82 H82        31.7905   -3.4945   -5.9292 H         1 UNK         0.1406 
     83 H83        29.3803   -6.0446   -3.4646 H         1 UNK         0.1631 
     84 H84        29.4959   -6.1894   -6.1287 H         1 UNK         0.0717 
     85 H85        30.0233   -4.7356   -6.9416 H         1 UNK         0.0717 
     86 H86        28.0843   -2.2510   -4.7169 H         1 UNK         0.0934 
     87 H87        29.3370   -2.4294   -5.9190 H         1 UNK         0.0934 
     88 H88        27.6594   -2.1908   -7.7468 H         1 UNK         0.0739 
     89 H89        25.6850   -1.6695   -5.5577 H         1 UNK         0.3093 
     90 H90        23.0151   -1.8278   -7.8433 H         1 UNK         0.0818 
     91 H91        22.0323   -3.5886   -6.3902 H         1 UNK         0.0819 
     92 H92        23.2692   -4.2850   -7.4224 H         1 UNK         0.0819 
     93 H93        23.6248   -3.9695   -5.7301 H         1 UNK         0.0819 
     94 H94        22.9333   -1.6668   -5.0313 H         1 UNK         0.3041 
     95 H95        23.9151    1.6969   -4.5625 H         1 UNK         0.0784 
     96 H96        21.5746    1.8895   -5.4209 H         1 UNK         0.0793 
     97 H97        21.1075    0.4769   -4.4837 H         1 UNK         0.0793 
     98 H98        21.6310    1.9515   -3.6685 H         1 UNK         0.0793 
     99 H99        22.8400    0.0647   -2.6359 H         1 UNK         0.3024 
    100 H100       24.7316   -0.3698   -0.9370 H         1 UNK         0.1171 
    101 H101       22.7265   -1.7182   -1.3310 H         1 UNK         0.0786 
    102 H102       23.8480   -2.7102   -0.4221 H         1 UNK         0.0786 
    103 H103       23.6404   -2.9712   -2.1520 H         1 UNK         0.0786 
    104 H104       26.7836   -1.2148   -0.8368 H         1 UNK         0.2977 
    105 H105       26.7594    0.0193   -5.0483 H         1 UNK         0.3127 
    106 H106       28.8517    1.8346   -5.3938 H         1 UNK         0.0770 
    107 H107       26.1089    2.2933   -4.1314 H         1 UNK         0.0814 
    108 H108       27.5359    3.2857   -3.8803 H         1 UNK         0.0814 
    109 H109       27.5218    1.6203   -3.3222 H         1 UNK         0.0814 
    110 H110       25.6308    1.8407   -6.9821 H         1 UNK         0.2983 
    111 H111       26.2045    4.4478   -8.2836 H         1 UNK         0.0947 
    112 H112       23.8876    4.3176   -9.0291 H         1 UNK         0.0806 
    113 H113       23.9206    3.9488   -7.3124 H         1 UNK         0.0806 
    114 H114       23.7341    2.6535   -8.4953 H         1 UNK         0.0806 
    115 H115       27.0478    1.2683   -8.8537 H         1 UNK         0.3000 
    116 H116       26.8358    1.4301  -11.8345 H         1 UNK         0.0850 
    117 H117       27.1569   -1.0555  -11.7194 H         1 UNK         0.0810 
    118 H118       25.7043   -0.5363  -10.8862 H         1 UNK         0.0810 
    119 H119       27.1234   -0.9834   -9.9578 H         1 UNK         0.0810 
    120 H120       29.0619   -0.6715  -10.1809 H         1 UNK         0.3040 
    121 H121       31.3347    0.3362  -11.6215 H         1 UNK         0.0766 
    122 H122       32.5454   -1.4502  -10.3476 H         1 UNK         0.0812 
    123 H123       31.0713   -2.0703  -11.0695 H         1 UNK         0.0812 
    124 H124       31.1256   -1.7127   -9.3432 H         1 UNK         0.0812 
    125 H125       30.0551    0.9488   -8.4006 H         1 UNK         0.3205 
    126 H126       30.6063    2.2590   -6.7114 H         1 UNK         0.0754 
    127 H127       31.6377    4.4441   -7.1693 H         1 UNK         0.0769 
    128 H128       30.5509    4.0311   -8.4826 H         1 UNK         0.0769 
    129 H129       32.2943    3.8673   -8.6954 H         1 UNK         0.0769 
    130 H130       32.3865   -0.0478   -7.3382 H         1 UNK         0.2981 
    131 H131       34.1795   -1.1085   -6.6794 H         1 UNK         0.0541 
    132 H132       34.5291    1.1591   -8.7097 H         1 UNK         0.3459 
    133 H133       36.2678    1.3421   -8.7351 H         1 UNK         0.3459 
    134 H134       34.4588    0.9140   -4.4046 H         1 UNK         0.0612 
    135 H135       35.2950   -0.6131   -4.4942 H         1 UNK         0.0612 
    136 H136       34.0447   -2.8627   -4.9736 H         1 UNK         0.0624 
    137 H137       34.2746   -2.7944   -3.2418 H         1 UNK         0.0624 
@<TRIPOS>BOND
     1    1    2 1    
     2    1   72 1    
     3    1   73 1    
     4    1   74 1    
     5    2    3 2    
     6    2    4 am   BACKBONE|DICT|INTERRES
     7    4    5 1    
     8    4   75 1    
     9    5    6 1    
    10    5   35 1    
    11    5   76 1    
    12    6    7 1    
    13    6   77 1    
    14    6   78 1    
    15    7    8 1    
    16    8    9 1    
    17    8   79 1    
    18    8   80 1    
    19    9   10 ar   
    20    9   14 ar   
    21   10   11 ar   
    22   10   81 1    
    23   11   12 ar   
    24   11   71 1    
    25   12   13 ar   
    26   12   82 1    
    27   13   14 ar   
    28   13   15 1    
    29   14   83 1    
    30   15   16 1    
    31   15   84 1    
    32   15   85 1    
    33   16   17 1    
    34   17   18 1    
    35   17   86 1    
    36   17   87 1    
    37   18   19 1    
    38   18   37 1    
    39   18   88 1    
    40   19   20 am   BACKBONE|DICT|INTERRES
    41   19   89 1    
    42   20   21 2    
    43   20   22 1    
    44   22   23 1    
    45   22   24 1    
    46   22   90 1    
    47   23   91 1    
    48   23   92 1    
    49   23   93 1    
    50   24   25 am   BACKBONE|DICT|INTERRES
    51   24   94 1    
    52   25   26 2    
    53   25   27 1    
    54   27   28 1    
    55   27   29 1    
    56   27   95 1    
    57   28   96 1    
    58   28   97 1    
    59   28   98 1    
    60   29   30 am   BACKBONE|DICT|INTERRES
    61   29   99 1    
    62   30   31 2    
    63   30   32 1    
    64   32   33 1    
    65   32   34 1    
    66   32  100 1    
    67   33  101 1    
    68   33  102 1    
    69   33  103 1    
    70   34   35 am   BACKBONE|DICT|INTERRES
    71   34  104 1    
    72   35   36 2    
    73   37   38 2    
    74   37   39 am   BACKBONE|DICT|INTERRES
    75   39   40 1    
    76   39  105 1    
    77   40   41 1    
    78   40   42 1    
    79   40  106 1    
    80   41  107 1    
    81   41  108 1    
    82   41  109 1    
    83   42   43 2    
    84   42   44 am   BACKBONE|DICT|INTERRES
    85   44   45 1    
    86   44  110 1    
    87   45   46 1    
    88   45   47 1    
    89   45  111 1    
    90   46  112 1    
    91   46  113 1    
    92   46  114 1    
    93   47   48 2    
    94   47   49 am   BACKBONE|DICT|INTERRES
    95   49   50 1    
    96   49  115 1    
    97   50   51 1    
    98   50   52 1    
    99   50  116 1    
   100   51  117 1    
   101   51  118 1    
   102   51  119 1    
   103   52   53 2    
   104   52   54 am   BACKBONE|DICT|INTERRES
   105   54   55 1    
   106   54  120 1    
   107   55   56 1    
   108   55   57 1    
   109   55  121 1    
   110   56  122 1    
   111   56  123 1    
   112   56  124 1    
   113   57   58 2    
   114   57   59 am   BACKBONE|DICT|INTERRES
   115   59   60 1    
   116   59  125 1    
   117   60   61 1    
   118   60   62 1    
   119   60  126 1    
   120   61  127 1    
   121   61  128 1    
   122   61  129 1    
   123   62   63 2    
   124   62   64 am   BACKBONE|DICT|INTERRES
   125   64   65 1    
   126   64  130 1    
   127   65   66 1    
   128   65   69 1    
   129   65  131 1    
   130   66   67 am   BACKBONE|DICT|INTERRES
   131   66   68 2    
   132   67  132 1    
   133   67  133 1    
   134   69   70 1    
   135   69  134 1    
   136   69  135 1    
   137   70   71 1    
   138   71  136 1    
   139   71  137 1    
@<TRIPOS>SUBSTRUCTURE
     1 UNK         1 GROUP             0       ****    0 ROOT    
