@<TRIPOS>MOLECULE
3R137
137   139    1
SMALL
USER_CHARGES


@<TRIPOS>ATOM
      1 CA         23.7237   -5.5529   -4.7887 C.3       0 UNK        -0.2020 
      2 C          24.2823   -4.9345   -3.5168 C.2       0 UNK         0.4855 
      3 O          23.5326   -4.3292   -2.7498 O.2       0 UNK        -0.5197 
      4 N          25.5963   -5.0673   -3.2930 N.am      1 UNK        -0.4892 
      5 CA         26.3378   -4.4813   -2.1708 C.3       1 UNK         0.0835 
      6 C6         27.8160   -4.9576   -2.1346 C.3       12 UNK        -0.0855 
      7 S7         28.7012   -4.8689   -3.7377 S.3       12 UNK        -0.2931 
      8 C8         30.4384   -4.7961   -3.1966 C.3       12 UNK         0.0378 
      9 C9         31.0428   -3.4042   -3.3434 C.ar      12 UNK        -0.0802 
     10 C10        32.0821   -3.1858   -4.2545 C.ar      12 UNK        -0.0944 
     11 C11        32.7002   -1.9347   -4.3546 C.ar      12 UNK        -0.0787 
     12 C12        32.2641   -0.8953   -3.5238 C.ar      12 UNK        -0.0862 
     13 C13        31.2143   -1.0918   -2.6221 C.ar      12 UNK        -0.0733 
     14 C14        30.6066   -2.3486   -2.5364 C.ar      12 UNK        -0.0832 
     15 C15        30.7743    0.0460   -1.7105 C.3       12 UNK         0.0240 
     16 S16        29.9431    1.3879   -2.6206 S.3       12 UNK        -0.2522 
     17 C17        28.3478    0.6199   -3.0549 C.3       12 UNK        -0.0967 
     18 CA         28.0218    0.7279   -4.5655 C.3       5 UNK         0.0660 
     19 N          27.1238   -0.3506   -4.9980 N.am      5 UNK        -0.4015 
     20 C          26.6499   -0.5546   -6.2365 C.2       4 UNK         0.4946 
     21 O          26.9273    0.1537   -7.2024 O.2       4 UNK        -0.5353 
     22 CA         25.6606   -1.7130   -6.4209 C.3       4 UNK         0.0277 
     23 CB         26.3858   -3.0673   -6.4674 C.3       4 UNK        -0.1981 
     24 N          24.6636   -1.7092   -5.3512 N.am      4 UNK        -0.4209 
     25 C          23.5923   -0.9024   -5.3294 C.2       3 UNK         0.4942 
     26 O          23.2661   -0.1731   -6.2656 O.2       3 UNK        -0.5208 
     27 CA         22.7505   -0.8823   -4.0416 C.3       3 UNK         0.0250 
     28 CB         21.5543   -1.8401   -4.1596 C.3       3 UNK        -0.1990 
     29 N          23.5286   -1.2064   -2.8422 N.am      3 UNK        -0.4232 
     30 C          24.4529   -0.3937   -2.3068 C.2       2 UNK         0.4993 
     31 O          24.7309    0.7169   -2.7609 O.2       2 UNK        -0.5286 
     32 CA         25.2450   -0.9322   -1.0995 C.3       2 UNK         0.0209 
     33 CB         24.4992   -0.6325    0.2102 C.3       2 UNK        -0.1931 
     34 N          25.5432   -2.3680   -1.1786 N.am      2 UNK        -0.4546 
     35 C          26.2174   -2.9453   -2.1830 C.2       1 UNK         0.5154 
     36 O          26.6750   -2.3126   -3.1334 O.2       1 UNK        -0.5181 
     37 C          27.4887    2.1318   -4.9242 C.2       5 UNK         0.5014 
     38 O          28.2683    2.9871   -5.3449 O.2       5 UNK        -0.5248 
     39 N          26.1637    2.3235   -4.8323 N.am      6 UNK        -0.4434 
     40 CA         25.4439    3.5180   -5.2900 C.3       6 UNK         0.0363 
     41 CB         23.9541    3.3632   -4.9455 C.3       6 UNK        -0.1936 
     42 C          25.6158    3.8395   -6.7915 C.2       6 UNK         0.5081 
     43 O          25.4573    4.9987   -7.1745 O.2       6 UNK        -0.5248 
     44 N          25.9530    2.8303   -7.6055 N.am      7 UNK        -0.4718 
     45 CA         26.2824    2.9421   -9.0282 C.3       7 UNK         0.0273 
     46 CB         25.3909    1.9613   -9.8120 C.3       7 UNK        -0.1935 
     47 C          27.7811    2.6754   -9.2863 C.2       7 UNK         0.5018 
     48 O          28.1529    2.4018  -10.4280 O.2       7 UNK        -0.5186 
     49 N          28.6098    2.7494   -8.2318 N.am      8 UNK        -0.4240 
     50 CA         30.0592    2.5106   -8.1902 C.3       8 UNK         0.0235 
     51 CB         30.8214    3.4779   -9.1215 C.3       8 UNK        -0.2000 
     52 C          30.4822    1.0413   -8.3923 C.2       8 UNK         0.4941 
     53 O          31.6703    0.7954   -8.6025 O.2       8 UNK        -0.5273 
     54 N          29.5349    0.0946   -8.2872 N.am      9 UNK        -0.4262 
     55 CA         29.7001   -1.3634   -8.3450 C.3       9 UNK         0.0264 
     56 CB         30.2019   -1.8828   -6.9787 C.3       9 UNK        -0.1955 
     57 C          30.5565   -1.8230   -9.5415 C.2       9 UNK         0.5031 
     58 O          30.0835   -1.7747  -10.6784 O.2       9 UNK        -0.5390 
     59 N          31.7981   -2.2306   -9.2607 N.am      10 UNK        -0.4204 
     60 CA         32.8466   -2.5245  -10.2339 C.3       10 UNK         0.0237 
     61 CB         32.9551   -4.0491  -10.4306 C.3       10 UNK        -0.1985 
     62 C          34.1635   -1.8765   -9.7706 C.2       10 UNK         0.4970 
     63 O          35.2251   -2.4908   -9.8905 O.2       10 UNK        -0.4914 
     64 N          34.0697   -0.6609   -9.2207 N.am      11 UNK        -0.4285 
     65 CA         35.1768    0.1036   -8.6383 C.3       11 UNK         0.1007 
     66 C          35.0202    1.6258   -8.9224 C.2       11 UNK         0.5703 
     67 N          35.5717    2.4991   -8.0895 N.am      11 UNK        -0.7361 
     68 O          34.4540    2.0298   -9.9369 O.2       11 UNK        -0.4986 
     69 C69        35.4370   -0.2892   -7.1533 C.3       12 UNK        -0.0947 
     70 S70        33.9811   -0.0893   -6.0658 S.3       12 UNK        -0.2240 
     71 C71        33.8661   -1.7541   -5.3272 C.3       12 UNK         0.0194 
     72 H72        24.4845   -6.1015   -5.3437 H         1 UNK         0.0906 
     73 H73        22.9169   -6.2439   -4.5463 H         1 UNK         0.0906 
     74 H74        23.3233   -4.7755   -5.4389 H         1 UNK         0.0906 
     75 H75        26.1760   -5.5403   -3.9727 H         1 UNK         0.3140 
     76 H76        25.8614   -4.8415   -1.2564 H         1 UNK         0.1085 
     77 H77        27.8435   -5.9997   -1.8125 H         1 UNK         0.0836 
     78 H78        28.3722   -4.4071   -1.3738 H         1 UNK         0.0836 
     79 H79        31.0042   -5.5182   -3.7873 H         1 UNK         0.0731 
     80 H80        30.5300   -5.1258   -2.1609 H         1 UNK         0.0731 
     81 H81        32.4274   -4.0014   -4.8752 H         1 UNK         0.1312 
     82 H82        32.7419    0.0734   -3.5698 H         1 UNK         0.1406 
     83 H83        29.8042   -2.5122   -1.8308 H         1 UNK         0.1631 
     84 H84        31.6520    0.4569   -1.2096 H         1 UNK         0.0717 
     85 H85        30.1159   -0.3159   -0.9192 H         1 UNK         0.0717 
     86 H86        28.3931   -0.4281   -2.7602 H         1 UNK         0.0934 
     87 H87        27.5603    1.0631   -2.4427 H         1 UNK         0.0934 
     88 H88        28.9457    0.5811   -5.1294 H         1 UNK         0.0739 
     89 H89        26.8826   -1.0357   -4.2812 H         1 UNK         0.3093 
     90 H90        25.1541   -1.5726   -7.3786 H         1 UNK         0.0818 
     91 H91        26.9523   -3.2615   -5.5574 H         1 UNK         0.0819 
     92 H92        27.0901   -3.1033   -7.2985 H         1 UNK         0.0819 
     93 H93        25.6833   -3.8886   -6.6064 H         1 UNK         0.0819 
     94 H94        24.8931   -2.2308   -4.5160 H         1 UNK         0.3041 
     95 H95        22.3604    0.1313   -3.9241 H         1 UNK         0.0784 
     96 H96        20.9279   -1.5756   -5.0127 H         1 UNK         0.0793 
     97 H97        21.8722   -2.8733   -4.2994 H         1 UNK         0.0793 
     98 H98        20.9240   -1.8000   -3.2711 H         1 UNK         0.0793 
     99 H99        23.3976   -2.1310   -2.4468 H         1 UNK         0.3024 
    100 H100       26.1984   -0.4014   -1.0754 H         1 UNK         0.1171 
    101 H101       25.0935   -0.9148    1.0795 H         1 UNK         0.0786 
    102 H102       24.2832    0.4332    0.3007 H         1 UNK         0.0786 
    103 H103       23.5481   -1.1637    0.2654 H         1 UNK         0.0786 
    104 H104       25.1592   -2.9506   -0.4480 H         1 UNK         0.2977 
    105 H105       25.6032    1.5973   -4.3963 H         1 UNK         0.3127 
    106 H106       25.8393    4.3686   -4.7312 H         1 UNK         0.0770 
    107 H107       23.5098    2.5103   -5.4601 H         1 UNK         0.0814 
    108 H108       23.3904    4.2505   -5.2367 H         1 UNK         0.0814 
    109 H109       23.8059    3.2226   -3.8746 H         1 UNK         0.0814 
    110 H110       26.0944    1.9044   -7.2097 H         1 UNK         0.2983 
    111 H111       26.0769    3.9524   -9.3879 H         1 UNK         0.0947 
    112 H112       25.5512    2.0542  -10.8869 H         1 UNK         0.0806 
    113 H113       24.3339    2.1524   -9.6266 H         1 UNK         0.0806 
    114 H114       25.5967    0.9256   -9.5383 H         1 UNK         0.0806 
    115 H115       28.2007    2.9619   -7.3263 H         1 UNK         0.3000 
    116 H116       30.3585    2.7513   -7.1690 H         1 UNK         0.0850 
    117 H117       31.8976    3.4145   -8.9539 H         1 UNK         0.0810 
    118 H118       30.5285    4.5130   -8.9468 H         1 UNK         0.0810 
    119 H119       30.6482    3.2497  -10.1733 H         1 UNK         0.0810 
    120 H120       28.5819    0.3967   -8.1005 H         1 UNK         0.3040 
    121 H121       28.7056   -1.7779   -8.5121 H         1 UNK         0.0766 
    122 H122       31.1381   -1.4098   -6.6827 H         1 UNK         0.0812 
    123 H123       30.3554   -2.9629   -6.9901 H         1 UNK         0.0812 
    124 H124       29.4791   -1.6809   -6.1890 H         1 UNK         0.0812 
    125 H125       32.0968   -2.1875   -8.2963 H         1 UNK         0.3205 
    126 H126       32.6007   -2.0670  -11.1945 H         1 UNK         0.0754 
    127 H127       33.7045   -4.2959  -11.1838 H         1 UNK         0.0769 
    128 H128       32.0085   -4.4719  -10.7676 H         1 UNK         0.0769 
    129 H129       33.2381   -4.5546   -9.5065 H         1 UNK         0.0769 
    130 H130       33.1668   -0.1901   -9.1637 H         1 UNK         0.2981 
    131 H131       36.0797   -0.1566   -9.1933 H         1 UNK         0.0541 
    132 H132       35.4902    3.4836   -8.2880 H         1 UNK         0.3459 
    133 H133       36.0400    2.1910   -7.2524 H         1 UNK         0.3459 
    134 H134       36.2682    0.2789   -6.7341 H         1 UNK         0.0612 
    135 H135       35.7635   -1.3295   -7.1191 H         1 UNK         0.0612 
    136 H136       34.7950   -1.9703   -4.7980 H         1 UNK         0.0624 
    137 H137       33.7889   -2.4800   -6.1383 H         1 UNK         0.0624 
@<TRIPOS>BOND
     1    1    2 1    
     2    1   72 1    
     3    1   73 1    
     4    1   74 1    
     5    2    3 2    
     6    2    4 am   BACKBONE|DICT|INTERRES
     7    4    5 1    
     8    4   75 1    
     9    5    6 1    
    10    5   35 1    
    11    5   76 1    
    12    6    7 1    
    13    6   77 1    
    14    6   78 1    
    15    7    8 1    
    16    8    9 1    
    17    8   79 1    
    18    8   80 1    
    19    9   10 ar   
    20    9   14 ar   
    21   10   11 ar   
    22   10   81 1    
    23   11   12 ar   
    24   11   71 1    
    25   12   13 ar   
    26   12   82 1    
    27   13   14 ar   
    28   13   15 1    
    29   14   83 1    
    30   15   16 1    
    31   15   84 1    
    32   15   85 1    
    33   16   17 1    
    34   17   18 1    
    35   17   86 1    
    36   17   87 1    
    37   18   19 1    
    38   18   37 1    
    39   18   88 1    
    40   19   20 am   BACKBONE|DICT|INTERRES
    41   19   89 1    
    42   20   21 2    
    43   20   22 1    
    44   22   23 1    
    45   22   24 1    
    46   22   90 1    
    47   23   91 1    
    48   23   92 1    
    49   23   93 1    
    50   24   25 am   BACKBONE|DICT|INTERRES
    51   24   94 1    
    52   25   26 2    
    53   25   27 1    
    54   27   28 1    
    55   27   29 1    
    56   27   95 1    
    57   28   96 1    
    58   28   97 1    
    59   28   98 1    
    60   29   30 am   BACKBONE|DICT|INTERRES
    61   29   99 1    
    62   30   31 2    
    63   30   32 1    
    64   32   33 1    
    65   32   34 1    
    66   32  100 1    
    67   33  101 1    
    68   33  102 1    
    69   33  103 1    
    70   34   35 am   BACKBONE|DICT|INTERRES
    71   34  104 1    
    72   35   36 2    
    73   37   38 2    
    74   37   39 am   BACKBONE|DICT|INTERRES
    75   39   40 1    
    76   39  105 1    
    77   40   41 1    
    78   40   42 1    
    79   40  106 1    
    80   41  107 1    
    81   41  108 1    
    82   41  109 1    
    83   42   43 2    
    84   42   44 am   BACKBONE|DICT|INTERRES
    85   44   45 1    
    86   44  110 1    
    87   45   46 1    
    88   45   47 1    
    89   45  111 1    
    90   46  112 1    
    91   46  113 1    
    92   46  114 1    
    93   47   48 2    
    94   47   49 am   BACKBONE|DICT|INTERRES
    95   49   50 1    
    96   49  115 1    
    97   50   51 1    
    98   50   52 1    
    99   50  116 1    
   100   51  117 1    
   101   51  118 1    
   102   51  119 1    
   103   52   53 2    
   104   52   54 am   BACKBONE|DICT|INTERRES
   105   54   55 1    
   106   54  120 1    
   107   55   56 1    
   108   55   57 1    
   109   55  121 1    
   110   56  122 1    
   111   56  123 1    
   112   56  124 1    
   113   57   58 2    
   114   57   59 am   BACKBONE|DICT|INTERRES
   115   59   60 1    
   116   59  125 1    
   117   60   61 1    
   118   60   62 1    
   119   60  126 1    
   120   61  127 1    
   121   61  128 1    
   122   61  129 1    
   123   62   63 2    
   124   62   64 am   BACKBONE|DICT|INTERRES
   125   64   65 1    
   126   64  130 1    
   127   65   66 1    
   128   65   69 1    
   129   65  131 1    
   130   66   67 am   BACKBONE|DICT|INTERRES
   131   66   68 2    
   132   67  132 1    
   133   67  133 1    
   134   69   70 1    
   135   69  134 1    
   136   69  135 1    
   137   70   71 1    
   138   71  136 1    
   139   71  137 1    
@<TRIPOS>SUBSTRUCTURE
     1 UNK         1 GROUP             0       ****    0 ROOT    
