@<TRIPOS>MOLECULE
3R137
137   139    1
SMALL
USER_CHARGES


@<TRIPOS>ATOM
      1 CA         23.1515   -3.2244   -3.0883 C.3       0 UNK        -0.2020 
      2 C          24.6276   -3.0837   -2.7533 C.2       0 UNK         0.4855 
      3 O          25.3447   -2.3706   -3.4586 O.2       0 UNK        -0.5197 
      4 N          25.0794   -3.7457   -1.6767 N.am      1 UNK        -0.4892 
      5 CA         26.4819   -3.8643   -1.2339 C.3       1 UNK         0.0835 
      6 C6         27.3552   -4.6033   -2.2864 C.3       12 UNK        -0.0855 
      7 S7         28.4136   -5.9280   -1.6026 S.3       12 UNK        -0.2931 
      8 C8         30.1073   -5.2364   -1.7007 C.3       12 UNK         0.0378 
      9 C9         30.4380   -4.5313   -3.0157 C.ar      12 UNK        -0.0802 
     10 C10        31.1349   -3.3196   -2.9841 C.ar      12 UNK        -0.0944 
     11 C11        31.3896   -2.6002   -4.1551 C.ar      12 UNK        -0.0787 
     12 C12        30.9085   -3.1031   -5.3704 C.ar      12 UNK        -0.0862 
     13 C13        30.2139   -4.3158   -5.4240 C.ar      12 UNK        -0.0733 
     14 C14        30.0189   -5.0459   -4.2480 C.ar      12 UNK        -0.0832 
     15 C15        29.6605   -4.8136   -6.7559 C.3       12 UNK         0.0240 
     16 S16        27.8816   -5.2455   -6.7265 S.3       12 UNK        -0.2522 
     17 C17        27.0779   -3.8520   -5.8602 C.3       12 UNK        -0.0967 
     18 CA         26.7454   -2.6409   -6.7658 C.3       5 UNK         0.0660 
     19 N          25.5095   -1.9656   -6.3525 N.am      5 UNK        -0.4015 
     20 C          24.8645   -1.0675   -7.1112 C.2       4 UNK         0.4946 
     21 O          25.2399   -0.7279   -8.2332 O.2       4 UNK        -0.5353 
     22 CA         23.6029   -0.4108   -6.5251 C.3       4 UNK         0.0277 
     23 CB         22.3823   -1.3230   -6.7278 C.3       4 UNK        -0.1981 
     24 N          23.6890   -0.0169   -5.1147 N.am      4 UNK        -0.4209 
     25 C          24.6390    0.7542   -4.5675 C.2       3 UNK         0.4942 
     26 O          25.6444    1.1318   -5.1665 O.2       3 UNK        -0.5208 
     27 CA         24.4386    1.1931   -3.1123 C.3       3 UNK         0.0250 
     28 CB         22.9815    1.0969   -2.6085 C.3       3 UNK        -0.1990 
     29 N          25.3237    0.4166   -2.2488 N.am      3 UNK        -0.4232 
     30 C          25.8499    0.8643   -1.0994 C.2       2 UNK         0.4993 
     31 O          25.6700    2.0061   -0.6719 O.2       2 UNK        -0.5286 
     32 CA         26.6916   -0.1254   -0.2731 C.3       2 UNK         0.0209 
     33 CB         26.6073    0.1430    1.2422 C.3       2 UNK        -0.1931 
     34 N          26.2841   -1.5047   -0.5439 N.am      2 UNK        -0.4546 
     35 C          27.1176   -2.5233   -0.7841 C.2       1 UNK         0.5154 
     36 O          28.3406   -2.4283   -0.6723 O.2       1 UNK        -0.5181 
     37 C          27.9201   -1.6476   -6.8086 C.2       5 UNK         0.5014 
     38 O          28.6825   -1.6425   -7.7753 O.2       5 UNK        -0.5248 
     39 N          28.0196   -0.8057   -5.7692 N.am      6 UNK        -0.4434 
     40 CA         29.0402    0.2320   -5.6327 C.3       6 UNK         0.0363 
     41 CB         28.9649    0.8568   -4.2300 C.3       6 UNK        -0.1936 
     42 C          28.9413    1.3021   -6.7276 C.2       6 UNK         0.5081 
     43 O          29.9711    1.7248   -7.2533 O.2       6 UNK        -0.5248 
     44 N          27.7059    1.6835   -7.0763 N.am      7 UNK        -0.4718 
     45 CA         27.3868    2.5747   -8.1895 C.3       7 UNK         0.0273 
     46 CB         25.9039    2.9727   -8.1190 C.3       7 UNK        -0.1935 
     47 C          27.7257    1.9559   -9.5557 C.2       7 UNK         0.5018 
     48 O          28.3348    2.6348  -10.3822 O.2       7 UNK        -0.5186 
     49 N          27.3463    0.6852   -9.7644 N.am      8 UNK        -0.4240 
     50 CA         27.6016   -0.0651  -10.9985 C.3       8 UNK         0.0235 
     51 CB         26.8239   -1.3910  -10.9776 C.3       8 UNK        -0.2000 
     52 C          29.0953   -0.3195  -11.2562 C.2       8 UNK         0.4941 
     53 O          29.5538   -0.1271  -12.3831 O.2       8 UNK        -0.5273 
     54 N          29.8277   -0.7343  -10.2138 N.am      9 UNK        -0.4262 
     55 CA         31.2732   -0.9708  -10.2659 C.3       9 UNK         0.0264 
     56 CB         31.6761   -1.8599   -9.0821 C.3       9 UNK        -0.1955 
     57 C          32.1076    0.3219  -10.2561 C.2       9 UNK         0.5031 
     58 O          33.2761    0.2732  -10.6432 O.2       9 UNK        -0.5390 
     59 N          31.5069    1.4323   -9.8019 N.am      10 UNK        -0.4204 
     60 CA         32.1089    2.7487   -9.5738 C.3       10 UNK         0.0237 
     61 CB         32.5807    3.3889  -10.8973 C.3       10 UNK        -0.1985 
     62 C          33.2041    2.6860   -8.4930 C.2       10 UNK         0.4970 
     63 O          34.3445    3.0837   -8.7403 O.2       10 UNK        -0.4914 
     64 N          32.8300    2.1732   -7.3126 N.am      11 UNK        -0.4285 
     65 CA         33.7093    2.0550   -6.1353 C.3       11 UNK         0.1007 
     66 C          34.1421    3.4150   -5.5106 C.2       11 UNK         0.5703 
     67 N          33.4566    4.5207   -5.7788 N.am      11 UNK        -0.7361 
     68 O          35.1218    3.4655   -4.7705 O.2       11 UNK        -0.4986 
     69 C69        33.1035    1.1382   -5.0404 C.3       12 UNK        -0.0947 
     70 S70        32.8083   -0.5747   -5.5864 S.3       12 UNK        -0.2240 
     71 C71        32.1265   -1.2633   -4.0360 C.3       12 UNK         0.0194 
     72 H72        22.6270   -3.8498   -2.3662 H         1 UNK         0.0906 
     73 H73        22.6693   -2.2491   -3.1024 H         1 UNK         0.0906 
     74 H74        23.0355   -3.6769   -4.0726 H         1 UNK         0.0906 
     75 H75        24.4214   -4.2864   -1.1306 H         1 UNK         0.3140 
     76 H76        26.4419   -4.4747   -0.3303 H         1 UNK         0.1085 
     77 H77        26.7245   -5.0965   -3.0275 H         1 UNK         0.0836 
     78 H78        27.9433   -3.8882   -2.8573 H         1 UNK         0.0836 
     79 H79        30.2307   -4.5468   -0.8640 H         1 UNK         0.0731 
     80 H80        30.8258   -6.0416   -1.5432 H         1 UNK         0.0731 
     81 H81        31.4614   -2.9179   -2.0342 H         1 UNK         0.1312 
     82 H82        31.0508   -2.5442   -6.2815 H         1 UNK         0.1406 
     83 H83        29.4789   -5.9823   -4.2852 H         1 UNK         0.1631 
     84 H84        30.2271   -5.6934   -7.0628 H         1 UNK         0.0717 
     85 H85        29.8134   -4.0697   -7.5376 H         1 UNK         0.0717 
     86 H86        26.1562   -4.2638   -5.4463 H         1 UNK         0.0934 
     87 H87        27.6642   -3.5521   -4.9941 H         1 UNK         0.0934 
     88 H88        26.5826   -3.0035   -7.7832 H         1 UNK         0.0739 
     89 H89        25.1921   -2.1364   -5.4030 H         1 UNK         0.3093 
     90 H90        23.4331    0.5059   -7.0936 H         1 UNK         0.0818 
     91 H91        21.4577   -0.8204   -6.4434 H         1 UNK         0.0819 
     92 H92        22.2806   -1.6116   -7.7751 H         1 UNK         0.0819 
     93 H93        22.4605   -2.2405   -6.1439 H         1 UNK         0.0819 
     94 H94        22.9031   -0.2692   -4.5348 H         1 UNK         0.3041 
     95 H95        24.7366    2.2435   -3.0791 H         1 UNK         0.0784 
     96 H96        22.2938    1.6127   -3.2803 H         1 UNK         0.0793 
     97 H97        22.6453    0.0657   -2.5059 H         1 UNK         0.0793 
     98 H98        22.8785    1.5690   -1.6311 H         1 UNK         0.0793 
     99 H99        25.5526   -0.5171   -2.5762 H         1 UNK         0.3024 
    100 H100       27.7255    0.0273   -0.5917 H         1 UNK         0.1171 
    101 H101       26.9601    1.1460    1.4860 H         1 UNK         0.0786 
    102 H102       27.2252   -0.5588    1.8026 H         1 UNK         0.0786 
    103 H103       25.5839    0.0563    1.6089 H         1 UNK         0.0786 
    104 H104       25.2922   -1.6704   -0.6447 H         1 UNK         0.2977 
    105 H105       27.3082   -0.8381   -5.0533 H         1 UNK         0.3127 
    106 H106       30.0072   -0.2543   -5.7445 H         1 UNK         0.0770 
    107 H107       28.0206    1.3754   -4.0642 H         1 UNK         0.0814 
    108 H108       29.7623    1.5866   -4.0872 H         1 UNK         0.0814 
    109 H109       29.0713    0.1010   -3.4517 H         1 UNK         0.0814 
    110 H110       26.9240    1.3289   -6.5292 H         1 UNK         0.2983 
    111 H111       27.9895    3.4785   -8.0761 H         1 UNK         0.0947 
    112 H112       25.6443    3.6584   -8.9266 H         1 UNK         0.0806 
    113 H113       25.6737    3.4748   -7.1791 H         1 UNK         0.0806 
    114 H114       25.2477    2.1055   -8.2016 H         1 UNK         0.0806 
    115 H115       26.8080    0.2078   -9.0467 H         1 UNK         0.3000 
    116 H116       27.2236    0.5332  -11.8302 H         1 UNK         0.0850 
    117 H117       27.0022   -1.9648  -11.8879 H         1 UNK         0.0810 
    118 H118       25.7497   -1.2181  -10.9097 H         1 UNK         0.0810 
    119 H119       27.1151   -2.0169  -10.1332 H         1 UNK         0.0810 
    120 H120       29.3629   -0.9288   -9.3267 H         1 UNK         0.3040 
    121 H121       31.5046   -1.5062  -11.1892 H         1 UNK         0.0766 
    122 H122       32.7439   -2.0823   -9.0985 H         1 UNK         0.0812 
    123 H123       31.1437   -2.8102   -9.0989 H         1 UNK         0.0812 
    124 H124       31.4595   -1.3639   -8.1368 H         1 UNK         0.0812 
    125 H125       30.5581    1.3372   -9.4623 H         1 UNK         0.3205 
    126 H126       31.3144    3.3798   -9.1723 H         1 UNK         0.0754 
    127 H127       32.9263    4.4101  -10.7327 H         1 UNK         0.0769 
    128 H128       31.7696    3.4338  -11.6242 H         1 UNK         0.0769 
    129 H129       33.4057    2.8372  -11.3488 H         1 UNK         0.0769 
    130 H130       31.8613    1.8880   -7.1917 H         1 UNK         0.2981 
    131 H131       34.6309    1.5819   -6.4797 H         1 UNK         0.0541 
    132 H132       32.6483    4.4885   -6.3785 H         1 UNK         0.3459 
    133 H133       33.7498    5.3943   -5.3710 H         1 UNK         0.3459 
    134 H134       32.1605    1.5565   -4.6847 H         1 UNK         0.0612 
    135 H135       33.7653    1.0896   -4.1732 H         1 UNK         0.0612 
    136 H136       32.9507   -1.3681   -3.3287 H         1 UNK         0.0624 
    137 H137       31.4385   -0.5400   -3.5990 H         1 UNK         0.0624 
@<TRIPOS>BOND
     1    1    2 1    
     2    1   72 1    
     3    1   73 1    
     4    1   74 1    
     5    2    3 2    
     6    2    4 am   BACKBONE|DICT|INTERRES
     7    4    5 1    
     8    4   75 1    
     9    5    6 1    
    10    5   35 1    
    11    5   76 1    
    12    6    7 1    
    13    6   77 1    
    14    6   78 1    
    15    7    8 1    
    16    8    9 1    
    17    8   79 1    
    18    8   80 1    
    19    9   10 ar   
    20    9   14 ar   
    21   10   11 ar   
    22   10   81 1    
    23   11   12 ar   
    24   11   71 1    
    25   12   13 ar   
    26   12   82 1    
    27   13   14 ar   
    28   13   15 1    
    29   14   83 1    
    30   15   16 1    
    31   15   84 1    
    32   15   85 1    
    33   16   17 1    
    34   17   18 1    
    35   17   86 1    
    36   17   87 1    
    37   18   19 1    
    38   18   37 1    
    39   18   88 1    
    40   19   20 am   BACKBONE|DICT|INTERRES
    41   19   89 1    
    42   20   21 2    
    43   20   22 1    
    44   22   23 1    
    45   22   24 1    
    46   22   90 1    
    47   23   91 1    
    48   23   92 1    
    49   23   93 1    
    50   24   25 am   BACKBONE|DICT|INTERRES
    51   24   94 1    
    52   25   26 2    
    53   25   27 1    
    54   27   28 1    
    55   27   29 1    
    56   27   95 1    
    57   28   96 1    
    58   28   97 1    
    59   28   98 1    
    60   29   30 am   BACKBONE|DICT|INTERRES
    61   29   99 1    
    62   30   31 2    
    63   30   32 1    
    64   32   33 1    
    65   32   34 1    
    66   32  100 1    
    67   33  101 1    
    68   33  102 1    
    69   33  103 1    
    70   34   35 am   BACKBONE|DICT|INTERRES
    71   34  104 1    
    72   35   36 2    
    73   37   38 2    
    74   37   39 am   BACKBONE|DICT|INTERRES
    75   39   40 1    
    76   39  105 1    
    77   40   41 1    
    78   40   42 1    
    79   40  106 1    
    80   41  107 1    
    81   41  108 1    
    82   41  109 1    
    83   42   43 2    
    84   42   44 am   BACKBONE|DICT|INTERRES
    85   44   45 1    
    86   44  110 1    
    87   45   46 1    
    88   45   47 1    
    89   45  111 1    
    90   46  112 1    
    91   46  113 1    
    92   46  114 1    
    93   47   48 2    
    94   47   49 am   BACKBONE|DICT|INTERRES
    95   49   50 1    
    96   49  115 1    
    97   50   51 1    
    98   50   52 1    
    99   50  116 1    
   100   51  117 1    
   101   51  118 1    
   102   51  119 1    
   103   52   53 2    
   104   52   54 am   BACKBONE|DICT|INTERRES
   105   54   55 1    
   106   54  120 1    
   107   55   56 1    
   108   55   57 1    
   109   55  121 1    
   110   56  122 1    
   111   56  123 1    
   112   56  124 1    
   113   57   58 2    
   114   57   59 am   BACKBONE|DICT|INTERRES
   115   59   60 1    
   116   59  125 1    
   117   60   61 1    
   118   60   62 1    
   119   60  126 1    
   120   61  127 1    
   121   61  128 1    
   122   61  129 1    
   123   62   63 2    
   124   62   64 am   BACKBONE|DICT|INTERRES
   125   64   65 1    
   126   64  130 1    
   127   65   66 1    
   128   65   69 1    
   129   65  131 1    
   130   66   67 am   BACKBONE|DICT|INTERRES
   131   66   68 2    
   132   67  132 1    
   133   67  133 1    
   134   69   70 1    
   135   69  134 1    
   136   69  135 1    
   137   70   71 1    
   138   71  136 1    
   139   71  137 1    
@<TRIPOS>SUBSTRUCTURE
     1 UNK         1 GROUP             0       ****    0 ROOT    
