@<TRIPOS>MOLECULE
3R137
137   139    1
SMALL
USER_CHARGES


@<TRIPOS>ATOM
      1 CA         29.2495   -5.9372   -4.4508 C.3       0 UNK        -0.2020 
      2 C          28.1806   -5.3254   -3.5597 C.2       0 UNK         0.4855 
      3 O          27.0087   -5.6867   -3.6752 O.2       0 UNK        -0.5197 
      4 N          28.5754   -4.4151   -2.6597 N.am      1 UNK        -0.4892 
      5 CA         27.6795   -3.7274   -1.7214 C.3       1 UNK         0.0835 
      6 C6         28.4407   -2.9338   -0.6244 C.3       12 UNK        -0.0855 
      7 S7         29.8416   -3.8357    0.1282 S.3       12 UNK        -0.2931 
      8 C8         31.0939   -2.5174    0.3156 C.3       12 UNK         0.0378 
      9 C9         31.4272   -1.8306   -1.0038 C.ar      12 UNK        -0.0802 
     10 C10        32.0727   -2.5385   -2.0213 C.ar      12 UNK        -0.0944 
     11 C11        32.3416   -1.9258   -3.2476 C.ar      12 UNK        -0.0787 
     12 C12        31.9585   -0.5976   -3.4548 C.ar      12 UNK        -0.0862 
     13 C13        31.3253    0.1291   -2.4417 C.ar      12 UNK        -0.0733 
     14 C14        31.0760   -0.4911   -1.2119 C.ar      12 UNK        -0.0832 
     15 C15        30.9432    1.5878   -2.6865 C.3       12 UNK         0.0240 
     16 S16        29.2491    2.0340   -2.1625 S.3       12 UNK        -0.2522 
     17 C17        28.2120    0.8128   -3.0328 C.3       12 UNK        -0.0967 
     18 CA         28.0377    1.0823   -4.5477 C.3       5 UNK         0.0660 
     19 N          27.6347   -0.1364   -5.2438 N.am      5 UNK        -0.4015 
     20 C          27.6796   -0.3341   -6.5664 C.2       4 UNK         0.4946 
     21 O          28.0036    0.5308   -7.3819 O.2       4 UNK        -0.5353 
     22 CA         27.3211   -1.7424   -7.0590 C.3       4 UNK         0.0277 
     23 CB         28.5233   -2.6849   -6.8889 C.3       4 UNK        -0.1981 
     24 N          26.1764   -2.2853   -6.3267 N.am      4 UNK        -0.4209 
     25 C          24.9177   -2.2931   -6.7855 C.2       3 UNK         0.4942 
     26 O          24.5949   -1.9071   -7.9089 O.2       3 UNK        -0.5208 
     27 CA         23.8207   -2.8161   -5.8382 C.3       3 UNK         0.0250 
     28 CB         23.5568   -4.3077   -6.1000 C.3       3 UNK        -0.1990 
     29 N          24.1023   -2.6219   -4.4125 N.am      3 UNK        -0.4232 
     30 C          24.2816   -1.4350   -3.8165 C.2       2 UNK         0.4993 
     31 O          24.2625   -0.3559   -4.4059 O.2       2 UNK        -0.5286 
     32 CA         24.6136   -1.4555   -2.3160 C.3       2 UNK         0.0209 
     33 CB         23.3263   -1.5548   -1.4822 C.3       2 UNK        -0.1931 
     34 N          25.5551   -2.5043   -1.8979 N.am      2 UNK        -0.4546 
     35 C          26.7393   -2.7643   -2.4714 C.2       1 UNK         0.5154 
     36 O          27.1255   -2.2323   -3.5165 O.2       1 UNK        -0.5181 
     37 C          27.1008    2.2689   -4.8473 C.2       5 UNK         0.5014 
     38 O          27.5929    3.3412   -5.2011 O.2       5 UNK        -0.5248 
     39 N          25.7758    2.0630   -4.7587 N.am      6 UNK        -0.4434 
     40 CA         24.7769    3.1011   -5.0499 C.3       6 UNK         0.0363 
     41 CB         23.4158    2.7085   -4.4535 C.3       6 UNK        -0.1936 
     42 C          24.6429    3.3892   -6.5547 C.2       6 UNK         0.5081 
     43 O          24.2612    4.4984   -6.9276 O.2       6 UNK        -0.5248 
     44 N          24.9852    2.3997   -7.3909 N.am      7 UNK        -0.4718 
     45 CA         25.0732    2.5283   -8.8472 C.3       7 UNK         0.0273 
     46 CB         24.9995    1.1255   -9.4728 C.3       7 UNK        -0.1935 
     47 C          26.3495    3.2546   -9.3142 C.2       7 UNK         0.5018 
     48 O          26.4284    3.6151  -10.4891 O.2       7 UNK        -0.5186 
     49 N          27.3236    3.4306   -8.4057 N.am      8 UNK        -0.4240 
     50 CA         28.6676    3.9772   -8.6254 C.3       8 UNK         0.0235 
     51 CB         28.6040    5.4697   -9.0142 C.3       8 UNK        -0.2000 
     52 C          29.5023    3.1295   -9.6068 C.2       8 UNK         0.4941 
     53 O          30.3098    3.6752  -10.3610 O.2       8 UNK        -0.5273 
     54 N          29.2986    1.8046   -9.5741 N.am      9 UNK        -0.4262 
     55 CA         29.9933    0.8328  -10.4216 C.3       9 UNK         0.0264 
     56 CB         29.1053   -0.4126  -10.5818 C.3       9 UNK        -0.1955 
     57 C          31.3724    0.4374   -9.8678 C.2       9 UNK         0.5031 
     58 O          32.1652   -0.1522  -10.6043 O.2       9 UNK        -0.5390 
     59 N          31.6178    0.7210   -8.5770 N.am      10 UNK        -0.4204 
     60 CA         32.8463    0.4403   -7.8161 C.3       10 UNK         0.0237 
     61 CB         33.9962    1.3465   -8.3041 C.3       10 UNK        -0.1985 
     62 C          33.2422   -1.0521   -7.7932 C.2       10 UNK         0.4970 
     63 O          34.4226   -1.3702   -7.6408 O.2       10 UNK        -0.4914 
     64 N          32.2432   -1.9305   -7.9526 N.am      11 UNK        -0.4285 
     65 CA         32.3664   -3.3916   -8.0837 C.3       11 UNK         0.1007 
     66 C          33.1138   -3.8579   -9.3715 C.2       11 UNK         0.5703 
     67 N          33.2460   -3.0244  -10.3987 N.am      11 UNK        -0.7361 
     68 O          33.5521   -5.0026   -9.4604 O.2       11 UNK        -0.4986 
     69 C69        32.8784   -4.0840   -6.7873 C.3       12 UNK        -0.0947 
     70 S70        31.8631   -3.6566   -5.3326 S.3       12 UNK        -0.2240 
     71 C71        33.0487   -2.6953   -4.3498 C.3       12 UNK         0.0194 
     72 H72        29.0698   -7.0041   -4.5799 H         1 UNK         0.0906 
     73 H73        29.2350   -5.4671   -5.4337 H         1 UNK         0.0906 
     74 H74        30.2445   -5.8161   -4.0236 H         1 UNK         0.0906 
     75 H75        29.5447   -4.1343   -2.6140 H         1 UNK         0.3140 
     76 H76        27.0714   -4.4932   -1.2347 H         1 UNK         0.1085 
     77 H77        27.7552   -2.6583    0.1793 H         1 UNK         0.0836 
     78 H78        28.8008   -1.9889   -1.0307 H         1 UNK         0.0836 
     79 H79        32.0038   -2.9507    0.7332 H         1 UNK         0.0731 
     80 H80        30.7360   -1.7936    1.0496 H         1 UNK         0.0731 
     81 H81        32.3528   -3.5711   -1.8626 H         1 UNK         0.1312 
     82 H82        32.1630   -0.1280   -4.4067 H         1 UNK         0.1406 
     83 H83        30.5868    0.0662   -0.4244 H         1 UNK         0.1631 
     84 H84        31.0529    1.8415   -3.7418 H         1 UNK         0.0717 
     85 H85        31.6482    2.2231   -2.1489 H         1 UNK         0.0717 
     86 H86        28.6667   -0.1662   -2.8789 H         1 UNK         0.0934 
     87 H87        27.2434    0.7598   -2.5331 H         1 UNK         0.0934 
     88 H88        29.0168    1.3444   -4.9533 H         1 UNK         0.0739 
     89 H89        27.3877   -0.9231   -4.6445 H         1 UNK         0.3093 
     90 H90        27.0912   -1.6749   -8.1244 H         1 UNK         0.0818 
     91 H91        29.3942   -2.3045   -7.4207 H         1 UNK         0.0819 
     92 H92        28.3080   -3.6763   -7.2875 H         1 UNK         0.0819 
     93 H93        28.8059   -2.8008   -5.8412 H         1 UNK         0.0819 
     94 H94        26.3466   -2.5878   -5.3734 H         1 UNK         0.3041 
     95 H95        22.9085   -2.2612   -6.0674 H         1 UNK         0.0784 
     96 H96        23.3228   -4.4849   -7.1508 H         1 UNK         0.0793 
     97 H97        24.4250   -4.9200   -5.8512 H         1 UNK         0.0793 
     98 H98        22.7103   -4.6704   -5.5166 H         1 UNK         0.0793 
     99 H99        24.1764   -3.4543   -3.8453 H         1 UNK         0.3024 
    100 H100       25.0859   -0.4980   -2.0873 H         1 UNK         0.1171 
    101 H101       23.5305   -1.4297   -0.4187 H         1 UNK         0.0786 
    102 H102       22.6158   -0.7765   -1.7656 H         1 UNK         0.0786 
    103 H103       22.8286   -2.5158   -1.6184 H         1 UNK         0.0786 
    104 H104       25.3194   -2.9919   -1.0451 H         1 UNK         0.2977 
    105 H105       25.4107    1.1398   -4.5314 H         1 UNK         0.3127 
    106 H106       25.0990    4.0257   -4.5657 H         1 UNK         0.0770 
    107 H107       22.9838    1.8463   -4.9624 H         1 UNK         0.0814 
    108 H108       22.7020    3.5278   -4.5479 H         1 UNK         0.0814 
    109 H109       23.4973    2.4688   -3.3933 H         1 UNK         0.0814 
    110 H110       25.2764    1.5181   -6.9934 H         1 UNK         0.2983 
    111 H111       24.2186    3.1093   -9.2011 H         1 UNK         0.0947 
    112 H112       25.0207    1.1805  -10.5620 H         1 UNK         0.0806 
    113 H113       24.0783    0.6134   -9.1939 H         1 UNK         0.0806 
    114 H114       25.8368    0.4990   -9.1633 H         1 UNK         0.0806 
    115 H115       27.1510    3.0883   -7.4688 H         1 UNK         0.3000 
    116 H116       29.1776    3.9109   -7.6630 H         1 UNK         0.0850 
    117 H117       29.6012    5.9109   -9.0347 H         1 UNK         0.0810 
    118 H118       28.0130    6.0405   -8.2979 H         1 UNK         0.0810 
    119 H119       28.1658    5.6137  -10.0022 H         1 UNK         0.0810 
    120 H120       28.6505    1.4270   -8.8839 H         1 UNK         0.3040 
    121 H121       30.1485    1.2704  -11.4101 H         1 UNK         0.0766 
    122 H122       28.1324   -0.1544  -11.0007 H         1 UNK         0.0812 
    123 H123       28.9369   -0.9149   -9.6296 H         1 UNK         0.0812 
    124 H124       29.5657   -1.1368  -11.2553 H         1 UNK         0.0812 
    125 H125       30.8788    1.1816   -8.0642 H         1 UNK         0.3205 
    126 H126       32.6323    0.7083   -6.7806 H         1 UNK         0.0754 
    127 H127       34.8729    1.2517   -7.6621 H         1 UNK         0.0769 
    128 H128       33.7041    2.3966   -8.2965 H         1 UNK         0.0769 
    129 H129       34.3063    1.0926   -9.3185 H         1 UNK         0.0769 
    130 H130       31.3153   -1.5611   -8.0829 H         1 UNK         0.2981 
    131 H131       31.3460   -3.7435   -8.2381 H         1 UNK         0.0541 
    132 H132       32.8869   -2.0770  -10.3567 H         1 UNK         0.3459 
    133 H133       33.7205   -3.3420  -11.2286 H         1 UNK         0.3459 
    134 H134       32.8402   -5.1690   -6.8961 H         1 UNK         0.0612 
    135 H135       33.9247   -3.8368   -6.6024 H         1 UNK         0.0612 
    136 H136       33.7935   -3.3690   -3.9236 H         1 UNK         0.0624 
    137 H137       33.5914   -2.0041   -4.9952 H         1 UNK         0.0624 
@<TRIPOS>BOND
     1    1    2 1    
     2    1   72 1    
     3    1   73 1    
     4    1   74 1    
     5    2    3 2    
     6    2    4 am   BACKBONE|DICT|INTERRES
     7    4    5 1    
     8    4   75 1    
     9    5    6 1    
    10    5   35 1    
    11    5   76 1    
    12    6    7 1    
    13    6   77 1    
    14    6   78 1    
    15    7    8 1    
    16    8    9 1    
    17    8   79 1    
    18    8   80 1    
    19    9   10 ar   
    20    9   14 ar   
    21   10   11 ar   
    22   10   81 1    
    23   11   12 ar   
    24   11   71 1    
    25   12   13 ar   
    26   12   82 1    
    27   13   14 ar   
    28   13   15 1    
    29   14   83 1    
    30   15   16 1    
    31   15   84 1    
    32   15   85 1    
    33   16   17 1    
    34   17   18 1    
    35   17   86 1    
    36   17   87 1    
    37   18   19 1    
    38   18   37 1    
    39   18   88 1    
    40   19   20 am   BACKBONE|DICT|INTERRES
    41   19   89 1    
    42   20   21 2    
    43   20   22 1    
    44   22   23 1    
    45   22   24 1    
    46   22   90 1    
    47   23   91 1    
    48   23   92 1    
    49   23   93 1    
    50   24   25 am   BACKBONE|DICT|INTERRES
    51   24   94 1    
    52   25   26 2    
    53   25   27 1    
    54   27   28 1    
    55   27   29 1    
    56   27   95 1    
    57   28   96 1    
    58   28   97 1    
    59   28   98 1    
    60   29   30 am   BACKBONE|DICT|INTERRES
    61   29   99 1    
    62   30   31 2    
    63   30   32 1    
    64   32   33 1    
    65   32   34 1    
    66   32  100 1    
    67   33  101 1    
    68   33  102 1    
    69   33  103 1    
    70   34   35 am   BACKBONE|DICT|INTERRES
    71   34  104 1    
    72   35   36 2    
    73   37   38 2    
    74   37   39 am   BACKBONE|DICT|INTERRES
    75   39   40 1    
    76   39  105 1    
    77   40   41 1    
    78   40   42 1    
    79   40  106 1    
    80   41  107 1    
    81   41  108 1    
    82   41  109 1    
    83   42   43 2    
    84   42   44 am   BACKBONE|DICT|INTERRES
    85   44   45 1    
    86   44  110 1    
    87   45   46 1    
    88   45   47 1    
    89   45  111 1    
    90   46  112 1    
    91   46  113 1    
    92   46  114 1    
    93   47   48 2    
    94   47   49 am   BACKBONE|DICT|INTERRES
    95   49   50 1    
    96   49  115 1    
    97   50   51 1    
    98   50   52 1    
    99   50  116 1    
   100   51  117 1    
   101   51  118 1    
   102   51  119 1    
   103   52   53 2    
   104   52   54 am   BACKBONE|DICT|INTERRES
   105   54   55 1    
   106   54  120 1    
   107   55   56 1    
   108   55   57 1    
   109   55  121 1    
   110   56  122 1    
   111   56  123 1    
   112   56  124 1    
   113   57   58 2    
   114   57   59 am   BACKBONE|DICT|INTERRES
   115   59   60 1    
   116   59  125 1    
   117   60   61 1    
   118   60   62 1    
   119   60  126 1    
   120   61  127 1    
   121   61  128 1    
   122   61  129 1    
   123   62   63 2    
   124   62   64 am   BACKBONE|DICT|INTERRES
   125   64   65 1    
   126   64  130 1    
   127   65   66 1    
   128   65   69 1    
   129   65  131 1    
   130   66   67 am   BACKBONE|DICT|INTERRES
   131   66   68 2    
   132   67  132 1    
   133   67  133 1    
   134   69   70 1    
   135   69  134 1    
   136   69  135 1    
   137   70   71 1    
   138   71  136 1    
   139   71  137 1    
@<TRIPOS>SUBSTRUCTURE
     1 UNK         1 GROUP             0       ****    0 ROOT    
