@<TRIPOS>MOLECULE
3R137
137   139    1
SMALL
USER_CHARGES


@<TRIPOS>ATOM
      1 CA         28.6313   -7.4201   -3.6730 C.3       0 UNK        -0.2020 
      2 C          28.5339   -6.3254   -4.7314 C.2       0 UNK         0.4855 
      3 O          28.5434   -6.6323   -5.9217 O.2       0 UNK        -0.5197 
      4 N          28.4352   -5.0454   -4.3573 N.am      1 UNK        -0.4892 
      5 CA         28.3967   -4.5157   -2.9966 C.3       1 UNK         0.0835 
      6 C6         29.8228   -4.2434   -2.4571 C.3       12 UNK        -0.0855 
      7 S7         29.8443   -3.9413   -0.6600 S.3       12 UNK        -0.2931 
      8 C8         31.4876   -3.1797   -0.4489 C.3       12 UNK         0.0378 
      9 C9         31.6116   -1.8256   -1.1396 C.ar      12 UNK        -0.0802 
     10 C10        32.6158   -1.6084   -2.0889 C.ar      12 UNK        -0.0944 
     11 C11        32.7555   -0.3607   -2.7061 C.ar      12 UNK        -0.0787 
     12 C12        31.8847    0.6760   -2.3600 C.ar      12 UNK        -0.0862 
     13 C13        30.8725    0.4726   -1.4158 C.ar      12 UNK        -0.0733 
     14 C14        30.7448   -0.7798   -0.8074 C.ar      12 UNK        -0.0832 
     15 C15        29.9315    1.6068   -1.0250 C.3       12 UNK         0.0240 
     16 S16        29.1717    2.4408   -2.4562 S.3       12 UNK        -0.2522 
     17 C17        28.1713    1.1030   -3.1879 C.3       12 UNK        -0.0967 
     18 CA         28.0060    1.2767   -4.7177 C.3       5 UNK         0.0660 
     19 N          27.6962    0.0085   -5.3829 N.am      5 UNK        -0.4015 
     20 C          27.6208   -0.1725   -6.7094 C.2       4 UNK         0.4946 
     21 O          27.9090    0.6950   -7.5324 O.2       4 UNK        -0.5353 
     22 CA         27.0636   -1.5228   -7.1937 C.3       4 UNK         0.0277 
     23 CB         28.1617   -2.5926   -7.2804 C.3       4 UNK        -0.1981 
     24 N          25.9932   -2.0047   -6.3202 N.am      4 UNK        -0.4209 
     25 C          24.7543   -1.4978   -6.2843 C.2       3 UNK         0.4942 
     26 O          24.3599   -0.6027   -7.0310 O.2       3 UNK        -0.5208 
     27 CA         23.8114   -2.0625   -5.2062 C.3       3 UNK         0.0250 
     28 CB         23.1171   -3.3379   -5.7094 C.3       3 UNK        -0.1990 
     29 N          24.4945   -2.3414   -3.9372 N.am      3 UNK        -0.4232 
     30 C          25.0237   -1.3955   -3.1482 C.2       2 UNK         0.4993 
     31 O          24.9585   -0.1919   -3.3940 O.2       2 UNK        -0.5286 
     32 CA         25.8012   -1.8626   -1.9043 C.3       2 UNK         0.0209 
     33 CB         24.8430   -2.0753   -0.7219 C.3       2 UNK        -0.1931 
     34 N          26.6222   -3.0670   -2.0936 N.am      2 UNK        -0.4546 
     35 C          27.5526   -3.2330   -3.0447 C.2       1 UNK         0.5154 
     36 O          27.7588   -2.4198   -3.9478 O.2       1 UNK        -0.5181 
     37 C          26.9714    2.3706   -5.0626 C.2       5 UNK         0.5014 
     38 O          27.3647    3.4853   -5.4062 O.2       5 UNK        -0.5248 
     39 N          25.6754    2.0237   -5.0166 N.am      6 UNK        -0.4434 
     40 CA         24.5618    2.8890   -5.4192 C.3       6 UNK         0.0363 
     41 CB         23.2280    2.2293   -5.0356 C.3       6 UNK        -0.1936 
     42 C          24.5823    3.2508   -6.9160 C.2       6 UNK         0.5081 
     43 O          24.2674    4.3891   -7.2639 O.2       6 UNK        -0.5248 
     44 N          24.9802    2.2970   -7.7708 N.am      7 UNK        -0.4718 
     45 CA         25.2209    2.5120   -9.2036 C.3       7 UNK         0.0273 
     46 CB         25.2767    1.1512   -9.9166 C.3       7 UNK        -0.1935 
     47 C          26.5001    3.3240   -9.4949 C.2       7 UNK         0.5018 
     48 O          26.6252    3.8687  -10.5924 O.2       7 UNK        -0.5186 
     49 N          27.4100    3.3863   -8.5123 N.am      8 UNK        -0.4240 
     50 CA         28.7095    4.0606   -8.5046 C.3       8 UNK         0.0235 
     51 CB         28.5359    5.5907   -8.6141 C.3       8 UNK        -0.2000 
     52 C          29.6915    3.4803   -9.5381 C.2       8 UNK         0.4941 
     53 O          30.3819    4.2424  -10.2191 O.2       8 UNK        -0.5273 
     54 N          29.7511    2.1457   -9.6372 N.am      9 UNK        -0.4262 
     55 CA         30.6399    1.4299  -10.5514 C.3       9 UNK         0.0264 
     56 CB         30.0079    1.3758  -11.9554 C.3       9 UNK        -0.1955 
     57 C          30.9022    0.0155  -10.0280 C.2       9 UNK         0.5031 
     58 O          30.0608   -0.5354   -9.3197 O.2       9 UNK        -0.5390 
     59 N          32.0460   -0.5602  -10.4215 N.am      10 UNK        -0.4204 
     60 CA         32.4914   -1.9523  -10.2409 C.3       10 UNK         0.0237 
     61 CB         31.5473   -2.9274  -10.9731 C.3       10 UNK        -0.1985 
     62 C          32.7370   -2.4304   -8.7952 C.2       10 UNK         0.4970 
     63 O          33.6817   -3.1932   -8.5898 O.2       10 UNK        -0.4914 
     64 N          31.8945   -2.0166   -7.8400 N.am      11 UNK        -0.4285 
     65 CA         31.8826   -2.4644   -6.4324 C.3       11 UNK         0.1007 
     66 C          31.5197   -3.9718   -6.2424 C.2       11 UNK         0.5703 
     67 N          30.8768   -4.6208   -7.2061 N.am      11 UNK        -0.7361 
     68 O          31.7862   -4.5567   -5.1960 O.2       11 UNK        -0.4986 
     69 C69        33.1605   -2.0465   -5.6477 C.3       12 UNK        -0.0947 
     70 S70        33.2897   -0.2399   -5.4411 S.3       12 UNK        -0.2240 
     71 C71        33.8682   -0.1123   -3.7171 C.3       12 UNK         0.0194 
     72 H72        28.9009   -8.3707   -4.1328 H         1 UNK         0.0906 
     73 H73        29.3912   -7.1901   -2.9275 H         1 UNK         0.0906 
     74 H74        27.6737   -7.5524   -3.1704 H         1 UNK         0.0906 
     75 H75        28.3615   -4.3294   -5.0665 H         1 UNK         0.3140 
     76 H76        27.8906   -5.2308   -2.3455 H         1 UNK         0.1085 
     77 H77        30.2787   -3.4031   -2.9852 H         1 UNK         0.0836 
     78 H78        30.4742   -5.0963   -2.6514 H         1 UNK         0.0836 
     79 H79        32.2463   -3.8747   -0.8125 H         1 UNK         0.0731 
     80 H80        31.6789   -3.0481    0.6169 H         1 UNK         0.0731 
     81 H81        33.2980   -2.4093   -2.3388 H         1 UNK         0.1312 
     82 H82        31.9952    1.6449   -2.8279 H         1 UNK         0.1406 
     83 H83        29.9726   -0.9459   -0.0681 H         1 UNK         0.1631 
     84 H84        30.4939    2.3432   -0.4495 H         1 UNK         0.0717 
     85 H85        29.1359    1.2465   -0.3709 H         1 UNK         0.0717 
     86 H86        28.6633    0.1515   -2.9803 H         1 UNK         0.0934 
     87 H87        27.2079    1.0606   -2.6779 H         1 UNK         0.0934 
     88 H88        28.9660    1.5972   -5.1291 H         1 UNK         0.0739 
     89 H89        27.5193   -0.7935   -4.7830 H         1 UNK         0.3093 
     90 H90        26.6509   -1.3798   -8.1944 H         1 UNK         0.0818 
     91 H91        28.8798   -2.3470   -8.0594 H         1 UNK         0.0819 
     92 H92        28.7144   -2.6850   -6.3472 H         1 UNK         0.0819 
     93 H93        27.7500   -3.5711   -7.5285 H         1 UNK         0.0819 
     94 H94        26.2533   -2.6837   -5.6193 H         1 UNK         0.3041 
     95 H95        23.0435   -1.3095   -5.0155 H         1 UNK         0.0784 
     96 H96        22.5864   -3.1490   -6.6437 H         1 UNK         0.0793 
     97 H97        23.8299   -4.1421   -5.8964 H         1 UNK         0.0793 
     98 H98        22.3825   -3.6998   -4.9897 H         1 UNK         0.0793 
     99 H99        24.5865   -3.3083   -3.6611 H         1 UNK         0.3024 
    100 H100       26.4855   -1.0544   -1.6388 H         1 UNK         0.1171 
    101 H101       25.3885   -2.2760    0.2005 H         1 UNK         0.0786 
    102 H102       24.2342   -1.1866   -0.5473 H         1 UNK         0.0786 
    103 H103       24.1611   -2.9082   -0.8977 H         1 UNK         0.0786 
    104 H104       26.5246   -3.7833   -1.3879 H         1 UNK         0.2977 
    105 H105       25.4279    1.1115   -4.6371 H         1 UNK         0.3127 
    106 H106       24.6525    3.8204   -4.8563 H         1 UNK         0.0770 
    107 H107       23.0815    1.2820   -5.5548 H         1 UNK         0.0814 
    108 H108       22.3864    2.8746   -5.2905 H         1 UNK         0.0814 
    109 H109       23.1754    2.0345   -3.9643 H         1 UNK         0.0814 
    110 H110       25.1472    1.3623   -7.4139 H         1 UNK         0.2983 
    111 H111       24.3780    3.0758   -9.6092 H         1 UNK         0.0947 
    112 H112       25.3734    1.2807  -10.9953 H         1 UNK         0.0806 
    113 H113       24.3718    0.5699   -9.7383 H         1 UNK         0.0806 
    114 H114       26.1284    0.5576   -9.5845 H         1 UNK         0.0806 
    115 H115       27.2141    2.8406   -7.6817 H         1 UNK         0.3000 
    116 H116       29.1480    3.8513   -7.5277 H         1 UNK         0.0850 
    117 H117       29.4890    6.1029   -8.4773 H         1 UNK         0.0810 
    118 H118       27.8549    5.9657   -7.8499 H         1 UNK         0.0810 
    119 H119       28.1447    5.8863   -9.5880 H         1 UNK         0.0810 
    120 H120       29.1864    1.5572   -9.0266 H         1 UNK         0.3040 
    121 H121       31.5967    1.9542  -10.6029 H         1 UNK         0.0766 
    122 H122       29.8598    2.3751  -12.3651 H         1 UNK         0.0812 
    123 H123       29.0383    0.8762  -11.9372 H         1 UNK         0.0812 
    124 H124       30.6437    0.8317  -12.6550 H         1 UNK         0.0812 
    125 H125       32.6787    0.0084  -10.9681 H         1 UNK         0.3205 
    126 H126       33.4595   -2.0072  -10.7419 H         1 UNK         0.0754 
    127 H127       31.9207   -3.9509  -10.9161 H         1 UNK         0.0769 
    128 H128       31.4596   -2.6746  -12.0298 H         1 UNK         0.0769 
    129 H129       30.5444   -2.9237  -10.5447 H         1 UNK         0.0769 
    130 H130       31.1274   -1.4150   -8.1338 H         1 UNK         0.2981 
    131 H131       31.0451   -1.9387   -5.9725 H         1 UNK         0.0541 
    132 H132       30.6485   -4.1636   -8.0725 H         1 UNK         0.3459 
    133 H133       30.6050   -5.5798   -7.0519 H         1 UNK         0.3459 
    134 H134       34.0650   -2.4104   -6.1354 H         1 UNK         0.0612 
    135 H135       33.1631   -2.4994   -4.6578 H         1 UNK         0.0612 
    136 H136       34.6959   -0.8054   -3.5586 H         1 UNK         0.0624 
    137 H137       34.2788    0.8867   -3.5632 H         1 UNK         0.0624 
@<TRIPOS>BOND
     1    1    2 1    
     2    1   72 1    
     3    1   73 1    
     4    1   74 1    
     5    2    3 2    
     6    2    4 am   BACKBONE|DICT|INTERRES
     7    4    5 1    
     8    4   75 1    
     9    5    6 1    
    10    5   35 1    
    11    5   76 1    
    12    6    7 1    
    13    6   77 1    
    14    6   78 1    
    15    7    8 1    
    16    8    9 1    
    17    8   79 1    
    18    8   80 1    
    19    9   10 ar   
    20    9   14 ar   
    21   10   11 ar   
    22   10   81 1    
    23   11   12 ar   
    24   11   71 1    
    25   12   13 ar   
    26   12   82 1    
    27   13   14 ar   
    28   13   15 1    
    29   14   83 1    
    30   15   16 1    
    31   15   84 1    
    32   15   85 1    
    33   16   17 1    
    34   17   18 1    
    35   17   86 1    
    36   17   87 1    
    37   18   19 1    
    38   18   37 1    
    39   18   88 1    
    40   19   20 am   BACKBONE|DICT|INTERRES
    41   19   89 1    
    42   20   21 2    
    43   20   22 1    
    44   22   23 1    
    45   22   24 1    
    46   22   90 1    
    47   23   91 1    
    48   23   92 1    
    49   23   93 1    
    50   24   25 am   BACKBONE|DICT|INTERRES
    51   24   94 1    
    52   25   26 2    
    53   25   27 1    
    54   27   28 1    
    55   27   29 1    
    56   27   95 1    
    57   28   96 1    
    58   28   97 1    
    59   28   98 1    
    60   29   30 am   BACKBONE|DICT|INTERRES
    61   29   99 1    
    62   30   31 2    
    63   30   32 1    
    64   32   33 1    
    65   32   34 1    
    66   32  100 1    
    67   33  101 1    
    68   33  102 1    
    69   33  103 1    
    70   34   35 am   BACKBONE|DICT|INTERRES
    71   34  104 1    
    72   35   36 2    
    73   37   38 2    
    74   37   39 am   BACKBONE|DICT|INTERRES
    75   39   40 1    
    76   39  105 1    
    77   40   41 1    
    78   40   42 1    
    79   40  106 1    
    80   41  107 1    
    81   41  108 1    
    82   41  109 1    
    83   42   43 2    
    84   42   44 am   BACKBONE|DICT|INTERRES
    85   44   45 1    
    86   44  110 1    
    87   45   46 1    
    88   45   47 1    
    89   45  111 1    
    90   46  112 1    
    91   46  113 1    
    92   46  114 1    
    93   47   48 2    
    94   47   49 am   BACKBONE|DICT|INTERRES
    95   49   50 1    
    96   49  115 1    
    97   50   51 1    
    98   50   52 1    
    99   50  116 1    
   100   51  117 1    
   101   51  118 1    
   102   51  119 1    
   103   52   53 2    
   104   52   54 am   BACKBONE|DICT|INTERRES
   105   54   55 1    
   106   54  120 1    
   107   55   56 1    
   108   55   57 1    
   109   55  121 1    
   110   56  122 1    
   111   56  123 1    
   112   56  124 1    
   113   57   58 2    
   114   57   59 am   BACKBONE|DICT|INTERRES
   115   59   60 1    
   116   59  125 1    
   117   60   61 1    
   118   60   62 1    
   119   60  126 1    
   120   61  127 1    
   121   61  128 1    
   122   61  129 1    
   123   62   63 2    
   124   62   64 am   BACKBONE|DICT|INTERRES
   125   64   65 1    
   126   64  130 1    
   127   65   66 1    
   128   65   69 1    
   129   65  131 1    
   130   66   67 am   BACKBONE|DICT|INTERRES
   131   66   68 2    
   132   67  132 1    
   133   67  133 1    
   134   69   70 1    
   135   69  134 1    
   136   69  135 1    
   137   70   71 1    
   138   71  136 1    
   139   71  137 1    
@<TRIPOS>SUBSTRUCTURE
     1 UNK         1 GROUP             0       ****    0 ROOT    
