@<TRIPOS>MOLECULE
3R137
137   139    1
SMALL
USER_CHARGES


@<TRIPOS>ATOM
      1 CA         26.3441   -6.2417   -4.7939 C.3       0 UNK        -0.2020 
      2 C          26.3270   -5.3735   -3.5456 C.2       0 UNK         0.4855 
      3 O          25.2526   -4.9816   -3.0891 O.2       0 UNK        -0.5197 
      4 N          27.5061   -5.0600   -2.9921 N.am      1 UNK        -0.4892 
      5 CA         27.6802   -4.2242   -1.7997 C.3       1 UNK         0.0835 
      6 C6         29.1406   -4.2582   -1.2748 C.3       12 UNK        -0.0855 
      7 S7         30.4053   -3.7028   -2.4789 S.3       12 UNK        -0.2931 
      8 C8         31.2968   -2.4310   -1.5247 C.3       12 UNK         0.0378 
      9 C9         31.8183   -1.3269   -2.4315 C.ar      12 UNK        -0.0802 
     10 C10        32.9544   -1.5338   -3.2176 C.ar      12 UNK        -0.0944 
     11 C11        33.4256   -0.5199   -4.0551 C.ar      12 UNK        -0.0787 
     12 C12        32.7443    0.6998   -4.1107 C.ar      12 UNK        -0.0862 
     13 C13        31.6078    0.9288   -3.3286 C.ar      12 UNK        -0.0733 
     14 C14        31.1661   -0.0908   -2.4743 C.ar      12 UNK        -0.0832 
     15 C15        30.9285    2.2994   -3.4330 C.3       12 UNK         0.0240 
     16 S16        29.3541    2.5278   -2.5228 S.3       12 UNK        -0.2522 
     17 C17        28.1720    1.3055   -3.1994 C.3       12 UNK        -0.0967 
     18 CA         28.1818    1.0918   -4.7358 C.3       5 UNK         0.0660 
     19 N          27.7773   -0.2685   -5.0895 N.am      5 UNK        -0.4015 
     20 C          27.7844   -0.7881   -6.3235 C.2       4 UNK         0.4946 
     21 O          28.2546   -0.2176   -7.3073 O.2       4 UNK        -0.5353 
     22 CA         27.1316   -2.1676   -6.4934 C.3       4 UNK         0.0277 
     23 CB         28.1504   -3.2858   -6.2382 C.3       4 UNK        -0.1981 
     24 N          25.9687   -2.3362   -5.6190 N.am      4 UNK        -0.4209 
     25 C          24.7968   -1.7107   -5.8027 C.2       3 UNK         0.4942 
     26 O          24.5566   -0.9795   -6.7620 O.2       3 UNK        -0.5208 
     27 CA         23.7279   -1.8959   -4.7135 C.3       3 UNK         0.0250 
     28 CB         22.9123   -3.1743   -4.9622 C.3       3 UNK        -0.1990 
     29 N          24.3002   -1.9194   -3.3644 N.am      3 UNK        -0.4232 
     30 C          24.8414   -0.8467   -2.7663 C.2       2 UNK         0.4993 
     31 O          24.8848    0.2706   -3.2818 O.2       2 UNK        -0.5286 
     32 CA         25.4979   -1.0592   -1.3887 C.3       2 UNK         0.0209 
     33 CB         24.4606   -0.8905   -0.2676 C.3       2 UNK        -0.1931 
     34 N          26.1758   -2.3535   -1.2410 N.am      2 UNK        -0.4546 
     35 C          27.1530   -2.7940   -2.0461 C.2       1 UNK         0.5154 
     36 O          27.5880   -2.1369   -2.9933 O.2       1 UNK        -0.5181 
     37 C          27.3118    2.1341   -5.4649 C.2       5 UNK         0.5014 
     38 O          27.8514    3.0027   -6.1539 O.2       5 UNK        -0.5248 
     39 N          25.9825    1.9836   -5.3392 N.am      6 UNK        -0.4434 
     40 CA         24.9658    2.8085   -5.9968 C.3       6 UNK         0.0363 
     41 CB         23.5699    2.3916   -5.5086 C.3       6 UNK        -0.1936 
     42 C          25.0343    2.7650   -7.5322 C.2       6 UNK         0.5081 
     43 O          24.8092    3.7928   -8.1716 O.2       6 UNK        -0.5248 
     44 N          25.4007    1.6092   -8.1035 N.am      7 UNK        -0.4718 
     45 CA         25.6501    1.3969   -9.5349 C.3       7 UNK         0.0273 
     46 CB         25.5504   -0.1096   -9.8392 C.3       7 UNK        -0.1935 
     47 C          26.9863    2.0052  -10.0211 C.2       7 UNK         0.5018 
     48 O          27.7131    1.3591  -10.7774 O.2       7 UNK        -0.5186 
     49 N          27.2759    3.2405   -9.5867 N.am      8 UNK        -0.4240 
     50 CA         28.4524    4.0602   -9.8952 C.3       8 UNK         0.0235 
     51 CB         28.3975    4.5414  -11.3612 C.3       8 UNK        -0.2000 
     52 C          29.7875    3.3780   -9.5349 C.2       8 UNK         0.4941 
     53 O          30.7322    3.4400  -10.3245 O.2       8 UNK        -0.5273 
     54 N          29.8377    2.7532   -8.3467 N.am      9 UNK        -0.4262 
     55 CA         30.9733    2.0061   -7.7913 C.3       9 UNK         0.0264 
     56 CB         32.1286    2.9600   -7.4191 C.3       9 UNK        -0.1955 
     57 C          31.4190    0.8439   -8.6998 C.2       9 UNK         0.5031 
     58 O          32.5579    0.8209   -9.1712 O.2       9 UNK        -0.5390 
     59 N          30.5010   -0.1040   -8.9283 N.am      10 UNK        -0.4204 
     60 CA         30.7536   -1.3442   -9.6676 C.3       10 UNK         0.0237 
     61 CB         29.4113   -1.9601  -10.0959 C.3       10 UNK        -0.1985 
     62 C          31.5841   -2.3598   -8.8601 C.2       10 UNK         0.4970 
     63 O          32.2567   -3.1972   -9.4614 O.2       10 UNK        -0.4914 
     64 N          31.5126   -2.2668   -7.5248 N.am      11 UNK        -0.4285 
     65 CA         32.2644   -3.0488   -6.5253 C.3       11 UNK         0.1007 
     66 C          31.9232   -4.5687   -6.4442 C.2       11 UNK         0.5703 
     67 N          30.9817   -5.0925   -7.2195 N.am      11 UNK        -0.7361 
     68 O          32.5078   -5.2879   -5.6377 O.2       11 UNK        -0.4986 
     69 C69        33.8026   -2.8149   -6.5910 C.3       12 UNK        -0.0947 
     70 S70        34.2919   -1.0561   -6.6300 S.3       12 UNK        -0.2240 
     71 C71        34.6826   -0.7258   -4.8860 C.3       12 UNK         0.0194 
     72 H72        27.3591   -6.4695   -5.1190 H         1 UNK         0.0906 
     73 H73        25.8306   -7.1830   -4.6004 H         1 UNK         0.0906 
     74 H74        25.8292   -5.7360   -5.6104 H         1 UNK         0.0906 
     75 H75        28.3658   -5.3674   -3.4250 H         1 UNK         0.3140 
     76 H76        27.0577   -4.6714   -1.0214 H         1 UNK         0.1085 
     77 H77        29.3933   -5.2805   -0.9892 H         1 UNK         0.0836 
     78 H78        29.2140   -3.6822   -0.3512 H         1 UNK         0.0836 
     79 H79        32.1251   -2.8973   -0.9892 H         1 UNK         0.0731 
     80 H80        30.6440   -2.0008   -0.7643 H         1 UNK         0.0731 
     81 H81        33.4674   -2.4852   -3.1780 H         1 UNK         0.1312 
     82 H82        33.1130    1.4812   -4.7607 H         1 UNK         0.1406 
     83 H83        30.3183    0.0643   -1.8263 H         1 UNK         0.1631 
     84 H84        30.7821    2.5667   -4.4797 H         1 UNK         0.0717 
     85 H85        31.6287    3.0398   -3.0437 H         1 UNK         0.0717 
     86 H86        28.3714    0.3606   -2.6973 H         1 UNK         0.0934 
     87 H87        27.1777    1.5847   -2.8467 H         1 UNK         0.0934 
     88 H88        29.1974    1.1852   -5.1105 H         1 UNK         0.0739 
     89 H89        27.4826   -0.8700   -4.3230 H         1 UNK         0.3093 
     90 H90        26.7933   -2.2489   -7.5284 H         1 UNK         0.0818 
     91 H91        28.5329   -3.2730   -5.2170 H         1 UNK         0.0819 
     92 H92        27.7206   -4.2675   -6.4306 H         1 UNK         0.0819 
     93 H93        29.0026   -3.1784   -6.9050 H         1 UNK         0.0819 
     94 H94        26.1059   -2.8645   -4.7688 H         1 UNK         0.3041 
     95 H95        23.0456   -1.0450   -4.7734 H         1 UNK         0.0784 
     96 H96        22.4336   -3.1439   -5.9420 H         1 UNK         0.0793 
     97 H97        23.5357   -4.0682   -4.9340 H         1 UNK         0.0793 
     98 H98        22.1226   -3.2922   -4.2201 H         1 UNK         0.0793 
     99 H99        24.3473   -2.8179   -2.8994 H         1 UNK         0.3024 
    100 H100       26.2543   -0.2805   -1.2711 H         1 UNK         0.1171 
    101 H101       24.9285   -0.9305    0.7163 H         1 UNK         0.0786 
    102 H102       23.9567    0.0742   -0.3448 H         1 UNK         0.0786 
    103 H103       23.6922   -1.6636   -0.3071 H         1 UNK         0.0786 
    104 H104       25.8439   -2.9541   -0.4996 H         1 UNK         0.2977 
    105 H105       25.6316    1.2572   -4.7176 H         1 UNK         0.3127 
    106 H106       25.1401    3.8422   -5.6913 H         1 UNK         0.0770 
    107 H107       23.3487    1.3541   -5.7613 H         1 UNK         0.0814 
    108 H108       22.7954    3.0113   -5.9625 H         1 UNK         0.0814 
    109 H109       23.4789    2.4988   -4.4275 H         1 UNK         0.0814 
    110 H110       25.5274    0.8009   -7.5051 H         1 UNK         0.2983 
    111 H111       24.8583    1.8992  -10.0948 H         1 UNK         0.0947 
    112 H112       25.6382   -0.3024  -10.9091 H         1 UNK         0.0806 
    113 H113       24.5933   -0.5191   -9.5159 H         1 UNK         0.0806 
    114 H114       26.3417   -0.6697   -9.3407 H         1 UNK         0.0806 
    115 H115       26.5856    3.6710   -8.9782 H         1 UNK         0.3000 
    116 H116       28.3844    4.9421   -9.2564 H         1 UNK         0.0850 
    117 H117       29.2023    5.2465  -11.5731 H         1 UNK         0.0810 
    118 H118       27.4583    5.0504  -11.5774 H         1 UNK         0.0810 
    119 H119       28.4987    3.7116  -12.0617 H         1 UNK         0.0810 
    120 H120       29.0055    2.7748   -7.7621 H         1 UNK         0.3040 
    121 H121       30.6220    1.5486   -6.8672 H         1 UNK         0.0766 
    122 H122       31.8054    3.7132   -6.7008 H         1 UNK         0.0812 
    123 H123       32.5263    3.4774   -8.2924 H         1 UNK         0.0812 
    124 H124       32.9560    2.4115   -6.9679 H         1 UNK         0.0812 
    125 H125       29.5845   -0.0139   -8.4863 H         1 UNK         0.3205 
    126 H126       31.3188   -1.0975  -10.5689 H         1 UNK         0.0754 
    127 H127       29.5656   -2.8685  -10.6798 H         1 UNK         0.0769 
    128 H128       28.8412   -1.2686  -10.7171 H         1 UNK         0.0769 
    129 H129       28.7918   -2.2225   -9.2383 H         1 UNK         0.0769 
    130 H130       30.9219   -1.5446   -7.1427 H         1 UNK         0.2981 
    131 H131       31.9212   -2.6535   -5.5696 H         1 UNK         0.0541 
    132 H132       30.5316   -4.5334   -7.9241 H         1 UNK         0.3459 
    133 H133       30.7754   -6.0755   -7.1434 H         1 UNK         0.3459 
    134 H134       34.2992   -3.2951   -5.7463 H         1 UNK         0.0612 
    135 H135       34.2136   -3.2875   -7.4844 H         1 UNK         0.0612 
    136 H136       35.2938   -1.5338   -4.4813 H         1 UNK         0.0624 
    137 H137       35.2978    0.1735   -4.8333 H         1 UNK         0.0624 
@<TRIPOS>BOND
     1    1    2 1    
     2    1   72 1    
     3    1   73 1    
     4    1   74 1    
     5    2    3 2    
     6    2    4 am   BACKBONE|DICT|INTERRES
     7    4    5 1    
     8    4   75 1    
     9    5    6 1    
    10    5   35 1    
    11    5   76 1    
    12    6    7 1    
    13    6   77 1    
    14    6   78 1    
    15    7    8 1    
    16    8    9 1    
    17    8   79 1    
    18    8   80 1    
    19    9   10 ar   
    20    9   14 ar   
    21   10   11 ar   
    22   10   81 1    
    23   11   12 ar   
    24   11   71 1    
    25   12   13 ar   
    26   12   82 1    
    27   13   14 ar   
    28   13   15 1    
    29   14   83 1    
    30   15   16 1    
    31   15   84 1    
    32   15   85 1    
    33   16   17 1    
    34   17   18 1    
    35   17   86 1    
    36   17   87 1    
    37   18   19 1    
    38   18   37 1    
    39   18   88 1    
    40   19   20 am   BACKBONE|DICT|INTERRES
    41   19   89 1    
    42   20   21 2    
    43   20   22 1    
    44   22   23 1    
    45   22   24 1    
    46   22   90 1    
    47   23   91 1    
    48   23   92 1    
    49   23   93 1    
    50   24   25 am   BACKBONE|DICT|INTERRES
    51   24   94 1    
    52   25   26 2    
    53   25   27 1    
    54   27   28 1    
    55   27   29 1    
    56   27   95 1    
    57   28   96 1    
    58   28   97 1    
    59   28   98 1    
    60   29   30 am   BACKBONE|DICT|INTERRES
    61   29   99 1    
    62   30   31 2    
    63   30   32 1    
    64   32   33 1    
    65   32   34 1    
    66   32  100 1    
    67   33  101 1    
    68   33  102 1    
    69   33  103 1    
    70   34   35 am   BACKBONE|DICT|INTERRES
    71   34  104 1    
    72   35   36 2    
    73   37   38 2    
    74   37   39 am   BACKBONE|DICT|INTERRES
    75   39   40 1    
    76   39  105 1    
    77   40   41 1    
    78   40   42 1    
    79   40  106 1    
    80   41  107 1    
    81   41  108 1    
    82   41  109 1    
    83   42   43 2    
    84   42   44 am   BACKBONE|DICT|INTERRES
    85   44   45 1    
    86   44  110 1    
    87   45   46 1    
    88   45   47 1    
    89   45  111 1    
    90   46  112 1    
    91   46  113 1    
    92   46  114 1    
    93   47   48 2    
    94   47   49 am   BACKBONE|DICT|INTERRES
    95   49   50 1    
    96   49  115 1    
    97   50   51 1    
    98   50   52 1    
    99   50  116 1    
   100   51  117 1    
   101   51  118 1    
   102   51  119 1    
   103   52   53 2    
   104   52   54 am   BACKBONE|DICT|INTERRES
   105   54   55 1    
   106   54  120 1    
   107   55   56 1    
   108   55   57 1    
   109   55  121 1    
   110   56  122 1    
   111   56  123 1    
   112   56  124 1    
   113   57   58 2    
   114   57   59 am   BACKBONE|DICT|INTERRES
   115   59   60 1    
   116   59  125 1    
   117   60   61 1    
   118   60   62 1    
   119   60  126 1    
   120   61  127 1    
   121   61  128 1    
   122   61  129 1    
   123   62   63 2    
   124   62   64 am   BACKBONE|DICT|INTERRES
   125   64   65 1    
   126   64  130 1    
   127   65   66 1    
   128   65   69 1    
   129   65  131 1    
   130   66   67 am   BACKBONE|DICT|INTERRES
   131   66   68 2    
   132   67  132 1    
   133   67  133 1    
   134   69   70 1    
   135   69  134 1    
   136   69  135 1    
   137   70   71 1    
   138   71  136 1    
   139   71  137 1    
@<TRIPOS>SUBSTRUCTURE
     1 UNK         1 GROUP             0       ****    0 ROOT    
