@<TRIPOS>MOLECULE
3R137
137   139    1
SMALL
USER_CHARGES


@<TRIPOS>ATOM
      1 CA         26.8291   -6.8314   -3.9770 C.3       0 UNK        -0.2020 
      2 C          26.3565   -6.0526   -2.7594 C.2       0 UNK         0.4855 
      3 O          25.4408   -6.4965   -2.0653 O.2       0 UNK        -0.5197 
      4 N          26.9814   -4.8998   -2.4908 N.am      1 UNK        -0.4892 
      5 CA         26.6066   -3.9913   -1.4013 C.3       1 UNK         0.0835 
      6 C6         27.7975   -3.1144   -0.9352 C.3       12 UNK        -0.0855 
      7 S7         29.0663   -4.1289   -0.0956 S.3       12 UNK        -0.2931 
      8 C8         30.6128   -3.2054   -0.4214 C.3       12 UNK         0.0378 
      9 C9         31.0568   -3.1380   -1.8846 C.ar      12 UNK        -0.0802 
     10 C10        31.9738   -2.1490   -2.2630 C.ar      12 UNK        -0.0944 
     11 C11        32.3761   -2.0162   -3.5963 C.ar      12 UNK        -0.0787 
     12 C12        31.8621   -2.8909   -4.5544 C.ar      12 UNK        -0.0862 
     13 C13        30.9261   -3.8648   -4.1994 C.ar      12 UNK        -0.0733 
     14 C14        30.5598   -4.0117   -2.8608 C.ar      12 UNK        -0.0832 
     15 C15        30.2253   -4.6783   -5.2782 C.3       12 UNK         0.0240 
     16 S16        28.5416   -4.0342   -5.5925 S.3       12 UNK        -0.2522 
     17 C17        28.8688   -2.2461   -5.7529 C.3       12 UNK        -0.0967 
     18 CA         27.8829   -1.4911   -6.6641 C.3       5 UNK         0.0660 
     19 N          26.5041   -1.5900   -6.1854 N.am      5 UNK        -0.4015 
     20 C          25.4319   -1.1909   -6.8816 C.2       4 UNK         0.4946 
     21 O          25.4816   -0.7499   -8.0299 O.2       4 UNK        -0.5353 
     22 CA         24.0939   -1.2249   -6.1327 C.3       4 UNK         0.0277 
     23 CB         23.5179   -2.6496   -6.0965 C.3       4 UNK        -0.1981 
     24 N          24.2364   -0.7126   -4.7675 N.am      4 UNK        -0.4209 
     25 C          24.4551    0.5748   -4.4582 C.2       3 UNK         0.4942 
     26 O          24.5598    1.4552   -5.3124 O.2       3 UNK        -0.5208 
     27 CA         24.6541    0.9517   -2.9724 C.3       3 UNK         0.0250 
     28 CB         23.8746    2.2276   -2.5915 C.3       3 UNK        -0.1990 
     29 N          24.3923   -0.1410   -2.0248 N.am      3 UNK        -0.4232 
     30 C          23.2312   -0.7751   -1.8012 C.2       2 UNK         0.4993 
     31 O          22.1552   -0.4195   -2.2837 O.2       2 UNK        -0.5286 
     32 CA         23.2866   -2.0488   -0.9293 C.3       2 UNK         0.0209 
     33 CB         22.2394   -3.0900   -1.3808 C.3       2 UNK        -0.1931 
     34 N          24.6069   -2.6990   -0.8240 N.am      2 UNK        -0.4546 
     35 C          25.3914   -3.1396   -1.8220 C.2       1 UNK         0.5154 
     36 O          25.1981   -2.8840   -3.0154 O.2       1 UNK        -0.5181 
     37 C          28.3397   -0.0237   -6.8220 C.2       5 UNK         0.5014 
     38 O          29.1181    0.2711   -7.7295 O.2       5 UNK        -0.5248 
     39 N          27.8483    0.8712   -5.9502 N.am      6 UNK        -0.4434 
     40 CA         28.1118    2.3107   -6.0135 C.3       6 UNK         0.0363 
     41 CB         27.6868    2.9920   -4.7028 C.3       6 UNK        -0.1936 
     42 C          27.4278    2.9607   -7.2257 C.2       6 UNK         0.5081 
     43 O          28.0667    3.7453   -7.9249 O.2       6 UNK        -0.5248 
     44 N          26.1710    2.5770   -7.4964 N.am      7 UNK        -0.4718 
     45 CA         25.4223    2.9664   -8.6970 C.3       7 UNK         0.0273 
     46 CB         23.9676    2.4864   -8.5750 C.3       7 UNK        -0.1935 
     47 C          26.0637    2.4498   -9.9987 C.2       7 UNK         0.5018 
     48 O          26.0465    3.1597  -11.0045 O.2       7 UNK        -0.5186 
     49 N          26.6574    1.2489   -9.9432 N.am      8 UNK        -0.4240 
     50 CA         27.4635    0.6566  -11.0157 C.3       8 UNK         0.0235 
     51 CB         27.5616   -0.8610  -10.7856 C.3       8 UNK        -0.2000 
     52 C          28.8721    1.2737  -11.1581 C.2       8 UNK         0.4941 
     53 O          29.5634    0.9418  -12.1221 O.2       8 UNK        -0.5273 
     54 N          29.2756    2.1407  -10.2153 N.am      9 UNK        -0.4262 
     55 CA         30.5680    2.8295  -10.1176 C.3       9 UNK         0.0264 
     56 CB         30.7572    3.8177  -11.2887 C.3       9 UNK        -0.1955 
     57 C          31.7616    1.8715   -9.9306 C.2       9 UNK         0.5031 
     58 O          32.8259    2.0911  -10.5151 O.2       9 UNK        -0.5390 
     59 N          31.5725    0.8272   -9.1130 N.am      10 UNK        -0.4204 
     60 CA         32.6156   -0.1298   -8.7381 C.3       10 UNK         0.0237 
     61 CB         31.9490   -1.3638   -8.1170 C.3       10 UNK        -0.1985 
     62 C          33.6322    0.4720   -7.7497 C.2       10 UNK         0.4970 
     63 O          33.3429    1.4755   -7.0935 O.2       10 UNK        -0.4914 
     64 N          34.7921   -0.1893   -7.6457 N.am      11 UNK        -0.4285 
     65 CA         35.9321    0.1606   -6.7753 C.3       11 UNK         0.1007 
     66 C          36.6890    1.4637   -7.1809 C.2       11 UNK         0.5703 
     67 N          36.4481    2.0371   -8.3544 N.am      11 UNK        -0.7361 
     68 O          37.5393    1.9472   -6.4367 O.2       11 UNK        -0.4986 
     69 C69        35.6020    0.1188   -5.2519 C.3       12 UNK        -0.0947 
     70 S70        34.8744   -1.4627   -4.6974 S.3       12 UNK        -0.2240 
     71 C71        33.2884   -0.8754   -4.0267 C.3       12 UNK         0.0194 
     72 H72        26.6647   -7.8994   -3.8352 H         1 UNK         0.0906 
     73 H73        26.2790   -6.5150   -4.8630 H         1 UNK         0.0906 
     74 H74        27.8927   -6.6797   -4.1576 H         1 UNK         0.0906 
     75 H75        27.6657   -4.5456   -3.1437 H         1 UNK         0.3140 
     76 H76        26.2871   -4.5980   -0.5502 H         1 UNK         0.1085 
     77 H77        28.2364   -2.5785   -1.7789 H         1 UNK         0.0836 
     78 H78        27.4702   -2.3520   -0.2256 H         1 UNK         0.0836 
     79 H79        30.4929   -2.1943   -0.0287 H         1 UNK         0.0731 
     80 H80        31.4142   -3.6672    0.1569 H         1 UNK         0.0731 
     81 H81        32.3546   -1.4616   -1.5198 H         1 UNK         0.1312 
     82 H82        32.1513   -2.7739   -5.5886 H         1 UNK         0.1406 
     83 H83        29.8464   -4.7787   -2.5982 H         1 UNK         0.1631 
     84 H84        30.1642   -5.7249   -4.9767 H         1 UNK         0.0717 
     85 H85        30.7955   -4.6575   -6.2083 H         1 UNK         0.0717 
     86 H86        28.8971   -1.8081   -4.7527 H         1 UNK         0.0934 
     87 H87        29.8682   -2.1382   -6.1651 H         1 UNK         0.0934 
     88 H88        27.9196   -1.9506   -7.6538 H         1 UNK         0.0739 
     89 H89        26.3675   -1.9784   -5.2623 H         1 UNK         0.3093 
     90 H90        23.3916   -0.5831   -6.6693 H         1 UNK         0.0818 
     91 H91        22.5431   -2.6690   -5.6087 H         1 UNK         0.0819 
     92 H92        23.3832   -3.0407   -7.1059 H         1 UNK         0.0819 
     93 H93        24.1714   -3.3410   -5.5627 H         1 UNK         0.0819 
     94 H94        24.2428   -1.4011   -4.0215 H         1 UNK         0.3041 
     95 H95        25.7157    1.1791   -2.8681 H         1 UNK         0.0784 
     96 H96        24.1912    3.0758   -3.1999 H         1 UNK         0.0793 
     97 H97        22.8012    2.1088   -2.7406 H         1 UNK         0.0793 
     98 H98        24.0414    2.4990   -1.5492 H         1 UNK         0.0793 
     99 H99        25.2105   -0.5265   -1.5747 H         1 UNK         0.3024 
    100 H100       23.0194   -1.7255    0.0783 H         1 UNK         0.1171 
    101 H101       21.2283   -2.6831   -1.3341 H         1 UNK         0.0786 
    102 H102       22.2569   -3.9736   -0.7428 H         1 UNK         0.0786 
    103 H103       22.4131   -3.4153   -2.4074 H         1 UNK         0.0786 
    104 H104       24.8901   -2.9194    0.1217 H         1 UNK         0.2977 
    105 H105       27.2008    0.5555   -5.2455 H         1 UNK         0.3127 
    106 H106       29.1897    2.4477   -6.1276 H         1 UNK         0.0770 
    107 H107       26.6099    2.9439   -4.5446 H         1 UNK         0.0814 
    108 H108       27.9615    4.0476   -4.7125 H         1 UNK         0.0814 
    109 H109       28.1768    2.5397   -3.8405 H         1 UNK         0.0814 
    110 H110       25.6870    1.9776   -6.8330 H         1 UNK         0.2983 
    111 H111       25.4191    4.0576   -8.7448 H         1 UNK         0.0947 
    112 H112       23.3802    2.7962   -9.4403 H         1 UNK         0.0806 
    113 H113       23.4863    2.9021   -7.6894 H         1 UNK         0.0806 
    114 H114       23.9042    1.3999   -8.5090 H         1 UNK         0.0806 
    115 H115       26.5446    0.6976   -9.0986 H         1 UNK         0.3000 
    116 H116       26.9432    0.8224  -11.9614 H         1 UNK         0.0850 
    117 H117       28.0646   -1.3510  -11.6203 H         1 UNK         0.0810 
    118 H118       26.5751   -1.3153  -10.6898 H         1 UNK         0.0810 
    119 H119       28.1283   -1.0943   -9.8849 H         1 UNK         0.0810 
    120 H120       28.6346    2.3411   -9.4567 H         1 UNK         0.3040 
    121 H121       30.5206    3.4200   -9.2015 H         1 UNK         0.0766 
    122 H122       29.9089    4.4967  -11.3747 H         1 UNK         0.0812 
    123 H123       30.8723    3.3004  -12.2416 H         1 UNK         0.0812 
    124 H124       31.6478    4.4301  -11.1428 H         1 UNK         0.0812 
    125 H125       30.6701    0.7190   -8.6518 H         1 UNK         0.3205 
    126 H126       33.1429   -0.4331   -9.6452 H         1 UNK         0.0754 
    127 H127       32.6712   -2.1631   -7.9476 H         1 UNK         0.0769 
    128 H128       31.1611   -1.7638   -8.7560 H         1 UNK         0.0769 
    129 H129       31.5096   -1.1064   -7.1552 H         1 UNK         0.0769 
    130 H130       34.9352   -1.0034   -8.2255 H         1 UNK         0.2981 
    131 H131       36.6620   -0.6297   -6.9536 H         1 UNK         0.0541 
    132 H132       36.9542    2.8709   -8.6079 H         1 UNK         0.3459 
    133 H133       35.7534    1.6587   -8.9782 H         1 UNK         0.3459 
    134 H134       34.9421    0.9455   -4.9846 H         1 UNK         0.0612 
    135 H135       36.5106    0.2659   -4.6656 H         1 UNK         0.0612 
    136 H136       33.4865   -0.2027   -3.1909 H         1 UNK         0.0624 
    137 H137       32.7749   -0.2837   -4.7861 H         1 UNK         0.0624 
@<TRIPOS>BOND
     1    1    2 1    
     2    1   72 1    
     3    1   73 1    
     4    1   74 1    
     5    2    3 2    
     6    2    4 am   BACKBONE|DICT|INTERRES
     7    4    5 1    
     8    4   75 1    
     9    5    6 1    
    10    5   35 1    
    11    5   76 1    
    12    6    7 1    
    13    6   77 1    
    14    6   78 1    
    15    7    8 1    
    16    8    9 1    
    17    8   79 1    
    18    8   80 1    
    19    9   10 ar   
    20    9   14 ar   
    21   10   11 ar   
    22   10   81 1    
    23   11   12 ar   
    24   11   71 1    
    25   12   13 ar   
    26   12   82 1    
    27   13   14 ar   
    28   13   15 1    
    29   14   83 1    
    30   15   16 1    
    31   15   84 1    
    32   15   85 1    
    33   16   17 1    
    34   17   18 1    
    35   17   86 1    
    36   17   87 1    
    37   18   19 1    
    38   18   37 1    
    39   18   88 1    
    40   19   20 am   BACKBONE|DICT|INTERRES
    41   19   89 1    
    42   20   21 2    
    43   20   22 1    
    44   22   23 1    
    45   22   24 1    
    46   22   90 1    
    47   23   91 1    
    48   23   92 1    
    49   23   93 1    
    50   24   25 am   BACKBONE|DICT|INTERRES
    51   24   94 1    
    52   25   26 2    
    53   25   27 1    
    54   27   28 1    
    55   27   29 1    
    56   27   95 1    
    57   28   96 1    
    58   28   97 1    
    59   28   98 1    
    60   29   30 am   BACKBONE|DICT|INTERRES
    61   29   99 1    
    62   30   31 2    
    63   30   32 1    
    64   32   33 1    
    65   32   34 1    
    66   32  100 1    
    67   33  101 1    
    68   33  102 1    
    69   33  103 1    
    70   34   35 am   BACKBONE|DICT|INTERRES
    71   34  104 1    
    72   35   36 2    
    73   37   38 2    
    74   37   39 am   BACKBONE|DICT|INTERRES
    75   39   40 1    
    76   39  105 1    
    77   40   41 1    
    78   40   42 1    
    79   40  106 1    
    80   41  107 1    
    81   41  108 1    
    82   41  109 1    
    83   42   43 2    
    84   42   44 am   BACKBONE|DICT|INTERRES
    85   44   45 1    
    86   44  110 1    
    87   45   46 1    
    88   45   47 1    
    89   45  111 1    
    90   46  112 1    
    91   46  113 1    
    92   46  114 1    
    93   47   48 2    
    94   47   49 am   BACKBONE|DICT|INTERRES
    95   49   50 1    
    96   49  115 1    
    97   50   51 1    
    98   50   52 1    
    99   50  116 1    
   100   51  117 1    
   101   51  118 1    
   102   51  119 1    
   103   52   53 2    
   104   52   54 am   BACKBONE|DICT|INTERRES
   105   54   55 1    
   106   54  120 1    
   107   55   56 1    
   108   55   57 1    
   109   55  121 1    
   110   56  122 1    
   111   56  123 1    
   112   56  124 1    
   113   57   58 2    
   114   57   59 am   BACKBONE|DICT|INTERRES
   115   59   60 1    
   116   59  125 1    
   117   60   61 1    
   118   60   62 1    
   119   60  126 1    
   120   61  127 1    
   121   61  128 1    
   122   61  129 1    
   123   62   63 2    
   124   62   64 am   BACKBONE|DICT|INTERRES
   125   64   65 1    
   126   64  130 1    
   127   65   66 1    
   128   65   69 1    
   129   65  131 1    
   130   66   67 am   BACKBONE|DICT|INTERRES
   131   66   68 2    
   132   67  132 1    
   133   67  133 1    
   134   69   70 1    
   135   69  134 1    
   136   69  135 1    
   137   70   71 1    
   138   71  136 1    
   139   71  137 1    
@<TRIPOS>SUBSTRUCTURE
     1 UNK         1 GROUP             0       ****    0 ROOT    
