@<TRIPOS>MOLECULE
3R137
137   139    1
SMALL
USER_CHARGES


@<TRIPOS>ATOM
      1 CA         25.7556   -6.2638   -3.7327 C.3       0 UNK        -0.2020 
      2 C          25.8791   -5.6973   -2.3269 C.2       0 UNK         0.4855 
      3 O          24.9533   -5.8419   -1.5285 O.2       0 UNK        -0.5197 
      4 N          27.0200   -5.0674   -2.0132 N.am      1 UNK        -0.4892 
      5 CA         27.3346   -4.5222   -0.6830 C.3       1 UNK         0.0835 
      6 C6         28.8386   -4.1902   -0.5203 C.3       12 UNK        -0.0855 
      7 S7         29.9088   -5.6219   -0.9076 S.3       12 UNK        -0.2931 
      8 C8         31.4703   -4.8281   -1.4208 C.3       12 UNK         0.0378 
      9 C9         31.2862   -3.8357   -2.5624 C.ar      12 UNK        -0.0802 
     10 C10        31.6749   -2.5031   -2.3989 C.ar      12 UNK        -0.0944 
     11 C11        31.4891   -1.5665   -3.4201 C.ar      12 UNK        -0.0787 
     12 C12        30.8846   -1.9820   -4.6155 C.ar      12 UNK        -0.0862 
     13 C13        30.4990   -3.3153   -4.7966 C.ar      12 UNK        -0.0733 
     14 C14        30.7175   -4.2402   -3.7728 C.ar      12 UNK        -0.0832 
     15 C15        29.8680   -3.7620   -6.1084 C.3       12 UNK         0.0240 
     16 S16        28.1846   -4.4366   -5.9141 S.3       12 UNK        -0.2522 
     17 C17        27.2430   -3.0219   -5.2537 C.3       12 UNK        -0.0967 
     18 CA         26.6552   -2.1082   -6.3626 C.3       5 UNK         0.0660 
     19 N          25.3834   -1.5032   -5.9657 N.am      5 UNK        -0.4015 
     20 C          24.5046   -0.9491   -6.8147 C.2       4 UNK         0.4946 
     21 O          24.6120   -0.9970   -8.0402 O.2       4 UNK        -0.5353 
     22 CA         23.3165   -0.1875   -6.1964 C.3       4 UNK         0.0277 
     23 CB         22.1086   -1.1227   -6.0262 C.3       4 UNK        -0.1981 
     24 N          23.6328    0.4379   -4.9084 N.am      4 UNK        -0.4209 
     25 C          24.5250    1.4250   -4.7398 C.2       3 UNK         0.4942 
     26 O          25.1259    1.9660   -5.6665 O.2       3 UNK        -0.5208 
     27 CA         24.8467    1.8441   -3.2935 C.3       3 UNK         0.0250 
     28 CB         23.9444    3.0112   -2.8633 C.3       3 UNK        -0.1990 
     29 N          24.7525    0.7618   -2.3050 N.am      3 UNK        -0.4232 
     30 C          25.4110   -0.4051   -2.3568 C.2       2 UNK         0.4993 
     31 O          26.1565   -0.7337   -3.2858 O.2       2 UNK        -0.5286 
     32 CA         25.1463   -1.3823   -1.2053 C.3       2 UNK         0.0209 
     33 CB         23.6854   -1.8746   -1.2172 C.3       2 UNK        -0.1931 
     34 N          26.0398   -2.5309   -1.3263 N.am      2 UNK        -0.4546 
     35 C          26.4647   -3.3001   -0.3166 C.2       1 UNK         0.5154 
     36 O          26.1838   -3.0896    0.8646 O.2       1 UNK        -0.5181 
     37 C          27.6473   -1.0022   -6.7536 C.2       5 UNK         0.5014 
     38 O          28.2473   -1.0712   -7.8262 O.2       5 UNK        -0.5248 
     39 N          27.7814    0.0098   -5.8828 N.am      6 UNK        -0.4434 
     40 CA         28.6936    1.1415   -6.0541 C.3       6 UNK         0.0363 
     41 CB         28.6406    2.0514   -4.8180 C.3       6 UNK        -0.1936 
     42 C          28.4485    1.9455   -7.3373 C.2       6 UNK         0.5081 
     43 O          29.4085    2.2547   -8.0422 O.2       6 UNK        -0.5248 
     44 N          27.1741    2.2204   -7.6432 N.am      7 UNK        -0.4718 
     45 CA         26.7368    2.9048   -8.8622 C.3       7 UNK         0.0273 
     46 CB         25.2285    3.1852   -8.7679 C.3       7 UNK        -0.1935 
     47 C          27.0582    2.1363  -10.1568 C.2       7 UNK         0.5018 
     48 O          27.2735    2.7708  -11.1902 O.2       7 UNK        -0.5186 
     49 N          27.0841    0.7988  -10.0828 N.am      8 UNK        -0.4240 
     50 CA         27.4344   -0.0786  -11.1975 C.3       8 UNK         0.0235 
     51 CB         26.7461   -1.4422  -11.0158 C.3       8 UNK        -0.2000 
     52 C          28.9555   -0.2443  -11.3327 C.2       8 UNK         0.4941 
     53 O          29.4803   -0.1166  -12.4395 O.2       8 UNK        -0.5273 
     54 N          29.6313   -0.5481  -10.2161 N.am      9 UNK        -0.4262 
     55 CA         31.0586   -0.8728  -10.1807 C.3       9 UNK         0.0264 
     56 CB         31.3635   -1.6761   -8.9068 C.3       9 UNK        -0.1955 
     57 C          31.9903    0.3448  -10.2663 C.2       9 UNK         0.5031 
     58 O          33.1130    0.1873  -10.7487 O.2       9 UNK        -0.5390 
     59 N          31.5409    1.5085   -9.7688 N.am      10 UNK        -0.4204 
     60 CA         32.3247    2.7351   -9.5649 C.3       10 UNK         0.0237 
     61 CB         32.7570    3.3570  -10.9106 C.3       10 UNK        -0.1985 
     62 C          33.4966    2.5020   -8.5888 C.2       10 UNK         0.4970 
     63 O          34.6366    2.8659   -8.8835 O.2       10 UNK        -0.4914 
     64 N          33.1847    1.8654   -7.4517 N.am      11 UNK        -0.4285 
     65 CA         34.1359    1.4646   -6.4011 C.3       11 UNK         0.1007 
     66 C          34.7981    2.6294   -5.6048 C.2       11 UNK         0.5703 
     67 N          34.3161    3.8630   -5.7014 N.am      11 UNK        -0.7361 
     68 O          35.7766    2.4077   -4.8951 O.2       11 UNK        -0.4986 
     69 C69        33.5163    0.3911   -5.4634 C.3       12 UNK        -0.0947 
     70 S70        32.0191    0.9807   -4.6031 S.3       12 UNK        -0.2240 
     71 C71        31.9288   -0.1235   -3.1538 C.3       12 UNK         0.0194 
     72 H72        25.1463   -5.6082   -4.3540 H         1 UNK         0.0906 
     73 H73        26.7297   -6.3838   -4.2053 H         1 UNK         0.0906 
     74 H74        25.2793   -7.2434   -3.7035 H         1 UNK         0.0906 
     75 H75        27.7638   -5.0066   -2.6944 H         1 UNK         0.3140 
     76 H76        27.0912   -5.2993    0.0455 H         1 UNK         0.1085 
     77 H77        29.1011   -3.3447   -1.1576 H         1 UNK         0.0836 
     78 H78        29.0531   -3.8769    0.5034 H         1 UNK         0.0836 
     79 H79        31.9146   -4.3421   -0.5507 H         1 UNK         0.0731 
     80 H80        32.1738   -5.6009   -1.7330 H         1 UNK         0.0731 
     81 H81        32.1193   -2.1878   -1.4644 H         1 UNK         0.1312 
     82 H82        30.7129   -1.2756   -5.4133 H         1 UNK         0.1406 
     83 H83        30.4221   -5.2720   -3.9090 H         1 UNK         0.1631 
     84 H84        29.8347   -2.9398   -6.8196 H         1 UNK         0.0717 
     85 H85        30.5007   -4.5270   -6.5603 H         1 UNK         0.0717 
     86 H86        26.4280   -3.4538   -4.6725 H         1 UNK         0.0934 
     87 H87        27.8457   -2.4714   -4.5282 H         1 UNK         0.0934 
     88 H88        26.4620   -2.7139   -7.2511 H         1 UNK         0.0739 
     89 H89        25.2638   -1.3477   -4.9714 H         1 UNK         0.3093 
     90 H90        23.0406    0.6070   -6.8934 H         1 UNK         0.0818 
     91 H91        21.2325   -0.5796   -5.6713 H         1 UNK         0.0819 
     92 H92        21.8371   -1.5846   -6.9767 H         1 UNK         0.0819 
     93 H93        22.3151   -1.9280   -5.3201 H         1 UNK         0.0819 
     94 H94        23.1746    0.0628   -4.0909 H         1 UNK         0.3041 
     95 H95        25.8796    2.1945   -3.2809 H         1 UNK         0.0784 
     96 H96        24.0148    3.8398   -3.5698 H         1 UNK         0.0793 
     97 H97        22.8959    2.7149   -2.8121 H         1 UNK         0.0793 
     98 H98        24.2333    3.3983   -1.8859 H         1 UNK         0.0793 
     99 H99        24.1541    0.9395   -1.5107 H         1 UNK         0.3024 
    100 H100       25.3538   -0.8589   -0.2690 H         1 UNK         0.1171 
    101 H101       23.4972   -2.5733   -0.4017 H         1 UNK         0.0786 
    102 H102       22.9814   -1.0505   -1.0969 H         1 UNK         0.0786 
    103 H103       23.4405   -2.3837   -2.1504 H         1 UNK         0.0786 
    104 H104       26.3712   -2.7148   -2.2635 H         1 UNK         0.2977 
    105 H105       27.2463   -0.0222   -5.0224 H         1 UNK         0.3127 
    106 H106       29.6949    0.7220   -6.1365 H         1 UNK         0.0770 
    107 H107       27.6746    2.5455   -4.7215 H         1 UNK         0.0814 
    108 H108       29.3975    2.8341   -4.8829 H         1 UNK         0.0814 
    109 H109       28.8313    1.4924   -3.9016 H         1 UNK         0.0814 
    110 H110       26.4480    1.9724   -6.9727 H         1 UNK         0.2983 
    111 H111       27.2634    3.8603   -8.9123 H         1 UNK         0.0947 
    112 H112       24.8700    3.7093   -9.6549 H         1 UNK         0.0806 
    113 H113       24.9950    3.8099   -7.9055 H         1 UNK         0.0806 
    114 H114       24.6538    2.2623   -8.6764 H         1 UNK         0.0806 
    115 H115       26.9233    0.3594   -9.1859 H         1 UNK         0.3000 
    116 H116       27.0617    0.3597  -12.1261 H         1 UNK         0.0850 
    117 H117       26.9774   -2.1096  -11.8469 H         1 UNK         0.0810 
    118 H118       25.6618   -1.3346  -10.9774 H         1 UNK         0.0810 
    119 H119       27.0607   -1.9416  -10.0988 H         1 UNK         0.0810 
    120 H120       29.1134   -0.6642   -9.3449 H         1 UNK         0.3040 
    121 H121       31.2835   -1.5114  -11.0379 H         1 UNK         0.0766 
    122 H122       30.8136   -2.6166   -8.9016 H         1 UNK         0.0812 
    123 H123       31.1000   -1.1201   -8.0062 H         1 UNK         0.0812 
    124 H124       32.4240   -1.9232   -8.8400 H         1 UNK         0.0812 
    125 H125       30.6095    1.5340   -9.3587 H         1 UNK         0.3205 
    126 H126       31.6584    3.4480   -9.0771 H         1 UNK         0.0754 
    127 H127       33.2323    4.3263  -10.7559 H         1 UNK         0.0769 
    128 H128       31.9001    3.5168  -11.5650 H         1 UNK         0.0769 
    129 H129       33.4716    2.7278  -11.4419 H         1 UNK         0.0769 
    130 H130       32.2189    1.6317   -7.2766 H         1 UNK         0.2981 
    131 H131       34.9639    0.9776   -6.9196 H         1 UNK         0.0541 
    132 H132       33.5129    4.0529   -6.2777 H         1 UNK         0.3459 
    133 H133       34.7572    4.6076   -5.1854 H         1 UNK         0.3459 
    134 H134       34.2487    0.0552   -4.7271 H         1 UNK         0.0612 
    135 H135       33.2481   -0.4946   -6.0412 H         1 UNK         0.0612 
    136 H136       31.2235    0.3160   -2.4475 H         1 UNK         0.0624 
    137 H137       32.9008   -0.1208   -2.6581 H         1 UNK         0.0624 
@<TRIPOS>BOND
     1    1    2 1    
     2    1   72 1    
     3    1   73 1    
     4    1   74 1    
     5    2    3 2    
     6    2    4 am   BACKBONE|DICT|INTERRES
     7    4    5 1    
     8    4   75 1    
     9    5    6 1    
    10    5   35 1    
    11    5   76 1    
    12    6    7 1    
    13    6   77 1    
    14    6   78 1    
    15    7    8 1    
    16    8    9 1    
    17    8   79 1    
    18    8   80 1    
    19    9   10 ar   
    20    9   14 ar   
    21   10   11 ar   
    22   10   81 1    
    23   11   12 ar   
    24   11   71 1    
    25   12   13 ar   
    26   12   82 1    
    27   13   14 ar   
    28   13   15 1    
    29   14   83 1    
    30   15   16 1    
    31   15   84 1    
    32   15   85 1    
    33   16   17 1    
    34   17   18 1    
    35   17   86 1    
    36   17   87 1    
    37   18   19 1    
    38   18   37 1    
    39   18   88 1    
    40   19   20 am   BACKBONE|DICT|INTERRES
    41   19   89 1    
    42   20   21 2    
    43   20   22 1    
    44   22   23 1    
    45   22   24 1    
    46   22   90 1    
    47   23   91 1    
    48   23   92 1    
    49   23   93 1    
    50   24   25 am   BACKBONE|DICT|INTERRES
    51   24   94 1    
    52   25   26 2    
    53   25   27 1    
    54   27   28 1    
    55   27   29 1    
    56   27   95 1    
    57   28   96 1    
    58   28   97 1    
    59   28   98 1    
    60   29   30 am   BACKBONE|DICT|INTERRES
    61   29   99 1    
    62   30   31 2    
    63   30   32 1    
    64   32   33 1    
    65   32   34 1    
    66   32  100 1    
    67   33  101 1    
    68   33  102 1    
    69   33  103 1    
    70   34   35 am   BACKBONE|DICT|INTERRES
    71   34  104 1    
    72   35   36 2    
    73   37   38 2    
    74   37   39 am   BACKBONE|DICT|INTERRES
    75   39   40 1    
    76   39  105 1    
    77   40   41 1    
    78   40   42 1    
    79   40  106 1    
    80   41  107 1    
    81   41  108 1    
    82   41  109 1    
    83   42   43 2    
    84   42   44 am   BACKBONE|DICT|INTERRES
    85   44   45 1    
    86   44  110 1    
    87   45   46 1    
    88   45   47 1    
    89   45  111 1    
    90   46  112 1    
    91   46  113 1    
    92   46  114 1    
    93   47   48 2    
    94   47   49 am   BACKBONE|DICT|INTERRES
    95   49   50 1    
    96   49  115 1    
    97   50   51 1    
    98   50   52 1    
    99   50  116 1    
   100   51  117 1    
   101   51  118 1    
   102   51  119 1    
   103   52   53 2    
   104   52   54 am   BACKBONE|DICT|INTERRES
   105   54   55 1    
   106   54  120 1    
   107   55   56 1    
   108   55   57 1    
   109   55  121 1    
   110   56  122 1    
   111   56  123 1    
   112   56  124 1    
   113   57   58 2    
   114   57   59 am   BACKBONE|DICT|INTERRES
   115   59   60 1    
   116   59  125 1    
   117   60   61 1    
   118   60   62 1    
   119   60  126 1    
   120   61  127 1    
   121   61  128 1    
   122   61  129 1    
   123   62   63 2    
   124   62   64 am   BACKBONE|DICT|INTERRES
   125   64   65 1    
   126   64  130 1    
   127   65   66 1    
   128   65   69 1    
   129   65  131 1    
   130   66   67 am   BACKBONE|DICT|INTERRES
   131   66   68 2    
   132   67  132 1    
   133   67  133 1    
   134   69   70 1    
   135   69  134 1    
   136   69  135 1    
   137   70   71 1    
   138   71  136 1    
   139   71  137 1    
@<TRIPOS>SUBSTRUCTURE
     1 UNK         1 GROUP             0       ****    0 ROOT    
