@<TRIPOS>MOLECULE
3R137
137   139    1
SMALL
USER_CHARGES


@<TRIPOS>ATOM
      1 CA         25.5451   -5.4846   -4.2590 C.3       0 UNK        -0.2020 
      2 C          25.7202   -5.8271   -2.7802 C.2       0 UNK         0.4855 
      3 O          25.0115   -6.7061   -2.2940 O.2       0 UNK        -0.5197 
      4 N          26.6271   -5.2033   -2.0114 N.am      1 UNK        -0.4892 
      5 CA         27.5510   -4.1059   -2.3295 C.3       1 UNK         0.0835 
      6 C6         28.6216   -4.4405   -3.4112 C.3       12 UNK        -0.0855 
      7 S7         29.8228   -5.7234   -2.9029 S.3       12 UNK        -0.2931 
      8 C8         30.8968   -4.8893   -1.6755 C.3       12 UNK         0.0378 
      9 C9         31.6423   -3.6803   -2.2319 C.ar      12 UNK        -0.0802 
     10 C10        32.9482   -3.7921   -2.7176 C.ar      12 UNK        -0.0944 
     11 C11        33.6258   -2.6644   -3.1973 C.ar      12 UNK        -0.0787 
     12 C12        32.9672   -1.4296   -3.2375 C.ar      12 UNK        -0.0862 
     13 C13        31.6543   -1.3028   -2.7716 C.ar      12 UNK        -0.0733 
     14 C14        31.0260   -2.4294   -2.2246 C.ar      12 UNK        -0.0832 
     15 C15        30.9418    0.0490   -2.8944 C.3       12 UNK         0.0240 
     16 S16        29.1266   -0.0622   -2.7242 S.3       12 UNK        -0.2522 
     17 C17        28.5108    1.4667   -3.4801 C.3       12 UNK        -0.0967 
     18 CA         28.1760    1.3325   -4.9900 C.3       5 UNK         0.0660 
     19 N          27.4187    0.1259   -5.3607 N.am      5 UNK        -0.4015 
     20 C          27.2151   -0.2683   -6.6285 C.2       4 UNK         0.4946 
     21 O          27.7737    0.2546   -7.5926 O.2       4 UNK        -0.5353 
     22 CA         26.2055   -1.3959   -6.8988 C.3       4 UNK         0.0277 
     23 CB         26.8917   -2.7588   -7.0711 C.3       4 UNK        -0.1981 
     24 N          25.1859   -1.4851   -5.8586 N.am      4 UNK        -0.4209 
     25 C          24.1003   -0.7044   -5.7955 C.2       3 UNK         0.4942 
     26 O          23.8201    0.1458   -6.6402 O.2       3 UNK        -0.5208 
     27 CA         23.1933   -0.8800   -4.5647 C.3       3 UNK         0.0250 
     28 CB         22.1419   -1.9707   -4.8236 C.3       3 UNK        -0.1990 
     29 N          23.9333   -1.1967   -3.3384 N.am      3 UNK        -0.4232 
     30 C          24.8137   -0.3716   -2.7561 C.2       2 UNK         0.4993 
     31 O          25.0904    0.7494   -3.1876 O.2       2 UNK        -0.5286 
     32 CA         25.5459   -0.9047   -1.5120 C.3       2 UNK         0.0209 
     33 CB         24.6501   -0.7793   -0.2690 C.3       2 UNK        -0.1931 
     34 N          26.0752   -2.2777   -1.5994 N.am      2 UNK        -0.4546 
     35 C          26.8040   -2.7849   -2.6065 C.2       1 UNK         0.5154 
     36 O          26.8983   -2.2563   -3.7129 O.2       1 UNK        -0.5181 
     37 C          27.4285    2.5920   -5.4621 C.2       5 UNK         0.5014 
     38 O          28.0369    3.4602   -6.0868 O.2       5 UNK        -0.5248 
     39 N          26.1139    2.6434   -5.1916 N.am      6 UNK        -0.4434 
     40 CA         25.2064    3.7127   -5.6204 C.3       6 UNK         0.0363 
     41 CB         23.8167    3.4802   -5.0068 C.3       6 UNK        -0.1936 
     42 C          25.1094    3.8535   -7.1505 C.2       6 UNK         0.5081 
     43 O          25.0219    4.9746   -7.6512 O.2       6 UNK        -0.5248 
     44 N          25.1656    2.7217   -7.8656 N.am      7 UNK        -0.4718 
     45 CA         25.2258    2.6604   -9.3291 C.3       7 UNK         0.0273 
     46 CB         24.7829    1.2597   -9.7836 C.3       7 UNK        -0.1935 
     47 C          26.6167    2.9878   -9.9102 C.2       7 UNK         0.5018 
     48 O          26.7275    3.1185  -11.1298 O.2       7 UNK        -0.5186 
     49 N          27.6460    3.0804   -9.0517 N.am      8 UNK        -0.4240 
     50 CA         29.0713    3.2400   -9.3721 C.3       8 UNK         0.0235 
     51 CB         29.3443    4.6134  -10.0217 C.3       8 UNK        -0.2000 
     52 C          29.6419    2.0593  -10.1857 C.2       8 UNK         0.4941 
     53 O          30.5269    2.2558  -11.0208 O.2       8 UNK        -0.5273 
     54 N          29.1189    0.8552   -9.9258 N.am      9 UNK        -0.4262 
     55 CA         29.5009   -0.3985  -10.5708 C.3       9 UNK         0.0264 
     56 CB         28.2274   -1.1964  -10.8980 C.3       9 UNK        -0.1955 
     57 C          30.4403   -1.2317   -9.6862 C.2       9 UNK         0.5031 
     58 O          31.2969   -1.9339  -10.2258 O.2       9 UNK        -0.5390 
     59 N          30.2708   -1.1601   -8.3573 N.am      10 UNK        -0.4204 
     60 CA         31.1164   -1.8623   -7.3914 C.3       10 UNK         0.0237 
     61 CB         30.3884   -2.0179   -6.0475 C.3       10 UNK        -0.1985 
     62 C          32.4497   -1.1277   -7.2055 C.2       10 UNK         0.4970 
     63 O          32.4657   -0.0421   -6.6207 O.2       10 UNK        -0.4914 
     64 N          33.5293   -1.7522   -7.6895 N.am      11 UNK        -0.4285 
     65 CA         34.9247   -1.3073   -7.5530 C.3       11 UNK         0.1007 
     66 C          35.2054    0.0706   -8.2309 C.2       11 UNK         0.5703 
     67 N          36.2251    0.8062   -7.8057 N.am      11 UNK        -0.7361 
     68 O          34.5412    0.4568   -9.1913 O.2       11 UNK        -0.4986 
     69 C69        35.4345   -1.4208   -6.0848 C.3       12 UNK        -0.0947 
     70 S70        35.2571   -3.1091   -5.4102 S.3       12 UNK        -0.2240 
     71 C71        35.0814   -2.7792   -3.6305 C.3       12 UNK         0.0194 
     72 H72        25.6961   -4.4333   -4.4829 H         1 UNK         0.0906 
     73 H73        26.2362   -6.0716   -4.8629 H         1 UNK         0.0906 
     74 H74        24.5345   -5.7347   -4.5814 H         1 UNK         0.0906 
     75 H75        26.6838   -5.5116   -1.0504 H         1 UNK         0.3140 
     76 H76        28.0955   -3.9140   -1.4046 H         1 UNK         0.1085 
     77 H77        29.1774   -3.5514   -3.7066 H         1 UNK         0.0836 
     78 H78        28.1503   -4.7762   -4.3334 H         1 UNK         0.0836 
     79 H79        31.6160   -5.6188   -1.3000 H         1 UNK         0.0731 
     80 H80        30.3010   -4.5951   -0.8107 H         1 UNK         0.0731 
     81 H81        33.4458   -4.7523   -2.7017 H         1 UNK         0.1312 
     82 H82        33.4764   -0.5621   -3.6336 H         1 UNK         0.1406 
     83 H83        30.0304   -2.3563   -1.8159 H         1 UNK         0.1631 
     84 H84        31.1720    0.4825   -3.8693 H         1 UNK         0.0717 
     85 H85        31.3313    0.7342   -2.1406 H         1 UNK         0.0717 
     86 H86        27.6257    1.7566   -2.9102 H         1 UNK         0.0934 
     87 H87        29.2414    2.2622   -3.3205 H         1 UNK         0.0934 
     88 H88        29.1242    1.2921   -5.5310 H         1 UNK         0.0739 
     89 H89        27.0188   -0.4196   -4.6048 H         1 UNK         0.3093 
     90 H90        25.7147   -1.1631   -7.8452 H         1 UNK         0.0818 
     91 H91        27.3103   -3.1259   -6.1356 H         1 UNK         0.0819 
     92 H92        26.1857   -3.5080   -7.4294 H         1 UNK         0.0819 
     93 H93        27.7002   -2.7054   -7.8010 H         1 UNK         0.0819 
     94 H94        25.4117   -2.0723   -5.0641 H         1 UNK         0.3041 
     95 H95        22.6730    0.0669   -4.4047 H         1 UNK         0.0784 
     96 H96        21.5632   -1.7483   -5.7214 H         1 UNK         0.0793 
     97 H97        22.6004   -2.9502   -4.9657 H         1 UNK         0.0793 
     98 H98        21.4358   -2.0461   -3.9963 H         1 UNK         0.0793 
     99 H99        23.7742   -2.1023   -2.9212 H         1 UNK         0.3024 
    100 H100       26.4079   -0.2509   -1.3642 H         1 UNK         0.1171 
    101 H101       25.2060   -0.9916    0.6445 H         1 UNK         0.0786 
    102 H102       24.2517    0.2320   -0.1730 H         1 UNK         0.0786 
    103 H103       23.8006   -1.4621   -0.3115 H         1 UNK         0.0786 
    104 H104       26.0110   -2.8225   -0.7513 H         1 UNK         0.2977 
    105 H105       25.7074    1.9024   -4.6240 H         1 UNK         0.3127 
    106 H106       25.6003    4.6529   -5.2287 H         1 UNK         0.0770 
    107 H107       23.3761    2.5433   -5.3488 H         1 UNK         0.0814 
    108 H108       23.1303    4.2829   -5.2795 H         1 UNK         0.0814 
    109 H109       23.8638    3.4487   -3.9180 H         1 UNK         0.0814 
    110 H110       25.1603    1.8377   -7.3714 H         1 UNK         0.2983 
    111 H111       24.5229    3.3909   -9.7356 H         1 UNK         0.0947 
    112 H112       24.7095    1.2071  -10.8707 H         1 UNK         0.0806 
    113 H113       23.8044    0.9982   -9.3802 H         1 UNK         0.0806 
    114 H114       25.4932    0.4946   -9.4712 H         1 UNK         0.0806 
    115 H115       27.4448    2.9763   -8.0637 H         1 UNK         0.3000 
    116 H116       29.5958    3.2211   -8.4156 H         1 UNK         0.0850 
    117 H117       30.4155    4.7913  -10.1235 H         1 UNK         0.0810 
    118 H118       28.9384    5.4246   -9.4174 H         1 UNK         0.0810 
    119 H119       28.9079    4.6852  -11.0183 H         1 UNK         0.0810 
    120 H120       28.4384    0.7816   -9.1703 H         1 UNK         0.3040 
    121 H121       30.0218   -0.1919  -11.5083 H         1 UNK         0.0766 
    122 H122       27.5788   -0.6416  -11.5762 H         1 UNK         0.0812 
    123 H123       27.6512   -1.4274  -10.0014 H         1 UNK         0.0812 
    124 H124       28.4722   -2.1420  -11.3835 H         1 UNK         0.0812 
    125 H125       29.5491   -0.5501   -7.9885 H         1 UNK         0.3205 
    126 H126       31.3149   -2.8690   -7.7663 H         1 UNK         0.0754 
    127 H127       31.0380   -2.4938   -5.3121 H         1 UNK         0.0769 
    128 H128       29.5115   -2.6514   -6.1418 H         1 UNK         0.0769 
    129 H129       30.0775   -1.0587   -5.6345 H         1 UNK         0.0769 
    130 H130       33.3987   -2.6109   -8.2036 H         1 UNK         0.2981 
    131 H131       35.5032   -2.0154   -8.1469 H         1 UNK         0.0541 
    132 H132       36.8021    0.5042   -7.0371 H         1 UNK         0.3459 
    133 H133       36.4172    1.6841   -8.2623 H         1 UNK         0.3459 
    134 H134       34.9085   -0.7099   -5.4475 H         1 UNK         0.0612 
    135 H135       36.4936   -1.1687   -6.0197 H         1 UNK         0.0612 
    136 H136       35.6304   -1.8752   -3.3624 H         1 UNK         0.0624 
    137 H137       35.5623   -3.5916   -3.0835 H         1 UNK         0.0624 
@<TRIPOS>BOND
     1    1    2 1    
     2    1   72 1    
     3    1   73 1    
     4    1   74 1    
     5    2    3 2    
     6    2    4 am   BACKBONE|DICT|INTERRES
     7    4    5 1    
     8    4   75 1    
     9    5    6 1    
    10    5   35 1    
    11    5   76 1    
    12    6    7 1    
    13    6   77 1    
    14    6   78 1    
    15    7    8 1    
    16    8    9 1    
    17    8   79 1    
    18    8   80 1    
    19    9   10 ar   
    20    9   14 ar   
    21   10   11 ar   
    22   10   81 1    
    23   11   12 ar   
    24   11   71 1    
    25   12   13 ar   
    26   12   82 1    
    27   13   14 ar   
    28   13   15 1    
    29   14   83 1    
    30   15   16 1    
    31   15   84 1    
    32   15   85 1    
    33   16   17 1    
    34   17   18 1    
    35   17   86 1    
    36   17   87 1    
    37   18   19 1    
    38   18   37 1    
    39   18   88 1    
    40   19   20 am   BACKBONE|DICT|INTERRES
    41   19   89 1    
    42   20   21 2    
    43   20   22 1    
    44   22   23 1    
    45   22   24 1    
    46   22   90 1    
    47   23   91 1    
    48   23   92 1    
    49   23   93 1    
    50   24   25 am   BACKBONE|DICT|INTERRES
    51   24   94 1    
    52   25   26 2    
    53   25   27 1    
    54   27   28 1    
    55   27   29 1    
    56   27   95 1    
    57   28   96 1    
    58   28   97 1    
    59   28   98 1    
    60   29   30 am   BACKBONE|DICT|INTERRES
    61   29   99 1    
    62   30   31 2    
    63   30   32 1    
    64   32   33 1    
    65   32   34 1    
    66   32  100 1    
    67   33  101 1    
    68   33  102 1    
    69   33  103 1    
    70   34   35 am   BACKBONE|DICT|INTERRES
    71   34  104 1    
    72   35   36 2    
    73   37   38 2    
    74   37   39 am   BACKBONE|DICT|INTERRES
    75   39   40 1    
    76   39  105 1    
    77   40   41 1    
    78   40   42 1    
    79   40  106 1    
    80   41  107 1    
    81   41  108 1    
    82   41  109 1    
    83   42   43 2    
    84   42   44 am   BACKBONE|DICT|INTERRES
    85   44   45 1    
    86   44  110 1    
    87   45   46 1    
    88   45   47 1    
    89   45  111 1    
    90   46  112 1    
    91   46  113 1    
    92   46  114 1    
    93   47   48 2    
    94   47   49 am   BACKBONE|DICT|INTERRES
    95   49   50 1    
    96   49  115 1    
    97   50   51 1    
    98   50   52 1    
    99   50  116 1    
   100   51  117 1    
   101   51  118 1    
   102   51  119 1    
   103   52   53 2    
   104   52   54 am   BACKBONE|DICT|INTERRES
   105   54   55 1    
   106   54  120 1    
   107   55   56 1    
   108   55   57 1    
   109   55  121 1    
   110   56  122 1    
   111   56  123 1    
   112   56  124 1    
   113   57   58 2    
   114   57   59 am   BACKBONE|DICT|INTERRES
   115   59   60 1    
   116   59  125 1    
   117   60   61 1    
   118   60   62 1    
   119   60  126 1    
   120   61  127 1    
   121   61  128 1    
   122   61  129 1    
   123   62   63 2    
   124   62   64 am   BACKBONE|DICT|INTERRES
   125   64   65 1    
   126   64  130 1    
   127   65   66 1    
   128   65   69 1    
   129   65  131 1    
   130   66   67 am   BACKBONE|DICT|INTERRES
   131   66   68 2    
   132   67  132 1    
   133   67  133 1    
   134   69   70 1    
   135   69  134 1    
   136   69  135 1    
   137   70   71 1    
   138   71  136 1    
   139   71  137 1    
@<TRIPOS>SUBSTRUCTURE
     1 UNK         1 GROUP             0       ****    0 ROOT    
