@<TRIPOS>MOLECULE
3R137
137   139    1
SMALL
USER_CHARGES


@<TRIPOS>ATOM
      1 CA         25.6650   -5.4416   -3.5078 C.3       0 UNK        -0.2020 
      2 C          25.5609   -4.1383   -2.7305 C.2       0 UNK         0.4855 
      3 O          24.4558   -3.7122   -2.3952 O.2       0 UNK        -0.5197 
      4 N          26.7039   -3.5022   -2.4415 N.am      1 UNK        -0.4892 
      5 CA         26.8090   -2.2316   -1.7132 C.3       1 UNK         0.0835 
      6 C6         28.2827   -1.8164   -1.4944 C.3       12 UNK        -0.0855 
      7 S7         29.2436   -3.0520   -0.5575 S.3       12 UNK        -0.2931 
      8 C8         30.9564   -2.4957   -0.8712 C.3       12 UNK         0.0378 
      9 C9         31.2914   -2.4333   -2.3572 C.ar      12 UNK        -0.0802 
     10 C10        31.7664   -1.2467   -2.9264 C.ar      12 UNK        -0.0944 
     11 C11        32.0209   -1.1710   -4.2991 C.ar      12 UNK        -0.0787 
     12 C12        31.7958   -2.2919   -5.1029 C.ar      12 UNK        -0.0862 
     13 C13        31.3253   -3.4832   -4.5457 C.ar      12 UNK        -0.0733 
     14 C14        31.0933   -3.5532   -3.1701 C.ar      12 UNK        -0.0832 
     15 C15        31.0329   -4.6887   -5.4279 C.3       12 UNK         0.0240 
     16 S16        29.8434   -4.3223   -6.7608 S.3       12 UNK        -0.2522 
     17 C17        28.4264   -3.5923   -5.8724 C.3       12 UNK        -0.0967 
     18 CA         27.8035   -2.4011   -6.6460 C.3       5 UNK         0.0660 
     19 N          26.3567   -2.3249   -6.4124 N.am      5 UNK        -0.4015 
     20 C          25.5092   -1.5277   -7.0731 C.2       4 UNK         0.4946 
     21 O          25.8662   -0.6222   -7.8242 O.2       4 UNK        -0.5353 
     22 CA         24.0153   -1.8106   -6.8954 C.3       4 UNK         0.0277 
     23 CB         23.6679   -3.2692   -7.2645 C.3       4 UNK        -0.1981 
     24 N          23.5512   -1.4852   -5.5455 N.am      4 UNK        -0.4209 
     25 C          22.2604   -1.2634   -5.2455 C.2       3 UNK         0.4942 
     26 O          21.3570   -1.2795   -6.0833 O.2       3 UNK        -0.5208 
     27 CA         21.8815   -0.9927   -3.7780 C.3       3 UNK         0.0250 
     28 CB         21.2740   -2.2521   -3.1387 C.3       3 UNK        -0.1990 
     29 N          23.0044   -0.5315   -2.9642 N.am      3 UNK        -0.4232 
     30 C          23.5023    0.7121   -3.0036 C.2       2 UNK         0.4993 
     31 O          23.0130    1.6177   -3.6782 O.2       2 UNK        -0.5286 
     32 CA         24.7565    1.0085   -2.1597 C.3       2 UNK         0.0209 
     33 CB         24.4034    1.9110   -0.9658 C.3       2 UNK        -0.1931 
     34 N          25.4646   -0.1794   -1.6649 N.am      2 UNK        -0.4546 
     35 C          26.0619   -1.0947   -2.4381 C.2       1 UNK         0.5154 
     36 O          26.0600   -1.0480   -3.6727 O.2       1 UNK        -0.5181 
     37 C          28.5554   -1.0693   -6.4126 C.2       5 UNK         0.5014 
     38 O          29.4106   -0.7031   -7.2249 O.2       5 UNK        -0.5248 
     39 N          28.1932   -0.3421   -5.3454 N.am      6 UNK        -0.4434 
     40 CA         28.7412    0.9830   -5.0370 C.3       6 UNK         0.0363 
     41 CB         28.7835    1.2099   -3.5184 C.3       6 UNK        -0.1936 
     42 C          27.9813    2.1231   -5.7321 C.2       6 UNK         0.5081 
     43 O          28.5511    3.2029   -5.8808 O.2       6 UNK        -0.5248 
     44 N          26.7396    1.8769   -6.1760 N.am      7 UNK        -0.4718 
     45 CA         25.9674    2.8168   -6.9982 C.3       7 UNK         0.0273 
     46 CB         24.4787    2.4339   -6.9897 C.3       7 UNK        -0.1935 
     47 C          26.5187    2.8850   -8.4322 C.2       7 UNK         0.5018 
     48 O          26.6566    3.9776   -8.9826 O.2       7 UNK        -0.5186 
     49 N          26.8786    1.7167   -8.9823 N.am      8 UNK        -0.4240 
     50 CA         27.6383    1.5661  -10.2254 C.3       8 UNK         0.0235 
     51 CB         27.5386    0.1040  -10.6914 C.3       8 UNK        -0.2000 
     52 C          29.1171    1.9727  -10.0770 C.2       8 UNK         0.4941 
     53 O          29.7592    2.2667  -11.0856 O.2       8 UNK        -0.5273 
     54 N          29.6212    1.9656   -8.8326 N.am      9 UNK        -0.4262 
     55 CA         30.9972    2.2457   -8.4083 C.3       9 UNK         0.0264 
     56 CB         31.3687    3.7199   -8.6697 C.3       9 UNK        -0.1955 
     57 C          32.0026    1.2488   -9.0112 C.2       9 UNK         0.5031 
     58 O          33.0802    1.6457   -9.4600 O.2       9 UNK        -0.5390 
     59 N          31.6327   -0.0405   -9.0021 N.am      10 UNK        -0.4204 
     60 CA         32.3819   -1.1329   -9.6343 C.3       10 UNK         0.0237 
     61 CB         31.5286   -2.4081   -9.5996 C.3       10 UNK        -0.1985 
     62 C          33.7713   -1.3925   -9.0224 C.2       10 UNK         0.4970 
     63 O          34.6290   -1.9608   -9.6991 O.2       10 UNK        -0.4914 
     64 N          33.9696   -0.9636   -7.7707 N.am      11 UNK        -0.4285 
     65 CA         35.2565   -0.9704   -7.0665 C.3       11 UNK         0.1007 
     66 C          36.2370    0.1619   -7.4976 C.2       11 UNK         0.5703 
     67 N          35.8344    1.1255   -8.3204 N.am      11 UNK        -0.7361 
     68 O          37.3959    0.1543   -7.0893 O.2       11 UNK        -0.4986 
     69 C69        35.0570   -1.0518   -5.5289 C.3       12 UNK        -0.0947 
     70 S70        34.2833    0.4166   -4.7560 S.3       12 UNK        -0.2240 
     71 C71        32.4905    0.1332   -4.9258 C.3       12 UNK         0.0194 
     72 H72        26.6993   -5.7090   -3.7229 H         1 UNK         0.0906 
     73 H73        25.2191   -6.2537   -2.9343 H         1 UNK         0.0906 
     74 H74        25.1290   -5.3604   -4.4529 H         1 UNK         0.0906 
     75 H75        27.5859   -3.9152   -2.7055 H         1 UNK         0.3140 
     76 H76        26.3391   -2.3808   -0.7385 H         1 UNK         0.1085 
     77 H77        28.7587   -1.6588   -2.4631 H         1 UNK         0.0836 
     78 H78        28.3477   -0.8673   -0.9579 H         1 UNK         0.0836 
     79 H79        31.0994   -1.5218   -0.4002 H         1 UNK         0.0731 
     80 H80        31.6482   -3.1812   -0.3801 H         1 UNK         0.0731 
     81 H81        31.9225   -0.3740   -2.3070 H         1 UNK         0.1312 
     82 H82        31.9639   -2.2363   -6.1688 H         1 UNK         0.1406 
     83 H83        30.7231   -4.4697   -2.7307 H         1 UNK         0.1631 
     84 H84        30.6447   -5.5195   -4.8367 H         1 UNK         0.0717 
     85 H85        31.9656   -5.0369   -5.8735 H         1 UNK         0.0717 
     86 H86        27.6998   -4.3989   -5.7656 H         1 UNK         0.0934 
     87 H87        28.6924   -3.3034   -4.8550 H         1 UNK         0.0934 
     88 H88        27.8992   -2.6111   -7.7139 H         1 UNK         0.0739 
     89 H89        25.9709   -3.0076   -5.7794 H         1 UNK         0.3093 
     90 H90        23.4986   -1.1561   -7.6014 H         1 UNK         0.0818 
     91 H91        22.5906   -3.4091   -7.3545 H         1 UNK         0.0819 
     92 H92        24.1044   -3.5469   -8.2251 H         1 UNK         0.0819 
     93 H93        24.0297   -3.9788   -6.5202 H         1 UNK         0.0819 
     94 H94        24.2563   -1.4028   -4.8205 H         1 UNK         0.3041 
     95 H95        21.1149   -0.2145   -3.7785 H         1 UNK         0.0784 
     96 H96        20.3915   -2.5809   -3.6893 H         1 UNK         0.0793 
     97 H97        21.9793   -3.0835   -3.1322 H         1 UNK         0.0793 
     98 H98        20.9623   -2.0665   -2.1107 H         1 UNK         0.0793 
     99 H99        23.4683   -1.2245   -2.3927 H         1 UNK         0.3024 
    100 H100       25.4391    1.5578   -2.8116 H         1 UNK         0.1171 
    101 H101       23.9048    2.8231   -1.2976 H         1 UNK         0.0786 
    102 H102       25.2963    2.2153   -0.4194 H         1 UNK         0.0786 
    103 H103       23.7333    1.4102   -0.2659 H         1 UNK         0.0786 
    104 H104       25.5085   -0.2847   -0.6608 H         1 UNK         0.2977 
    105 H105       27.4405   -0.6834   -4.7484 H         1 UNK         0.3127 
    106 H106       29.7693    1.0296   -5.3979 H         1 UNK         0.0770 
    107 H107       27.7938    1.1604   -3.0694 H         1 UNK         0.0814 
    108 H108       29.1935    2.1934   -3.2847 H         1 UNK         0.0814 
    109 H109       29.4231    0.4790   -3.0275 H         1 UNK         0.0814 
    110 H110       26.3558    0.9500   -6.0584 H         1 UNK         0.2983 
    111 H111       26.0596    3.8134   -6.5601 H         1 UNK         0.0947 
    112 H112       23.8926    3.1471   -7.5706 H         1 UNK         0.0806 
    113 H113       24.0767    2.4370   -5.9774 H         1 UNK         0.0806 
    114 H114       24.3022    1.4474   -7.4170 H         1 UNK         0.0806 
    115 H115       26.6363    0.8568   -8.4898 H         1 UNK         0.3000 
    116 H116       27.1894    2.2083  -10.9861 H         1 UNK         0.0850 
    117 H117       28.0698   -0.0449  -11.6325 H         1 UNK         0.0810 
    118 H118       26.5015   -0.1907  -10.8529 H         1 UNK         0.0810 
    119 H119       27.9697   -0.5813   -9.9597 H         1 UNK         0.0810 
    120 H120       28.9961    1.6695   -8.0969 H         1 UNK         0.3040 
    121 H121       31.0224    2.0896   -7.3292 H         1 UNK         0.0766 
    122 H122       30.6452    4.3956   -8.2133 H         1 UNK         0.0812 
    123 H123       31.4137    3.9447   -9.7357 H         1 UNK         0.0812 
    124 H124       32.3456    3.9570   -8.2465 H         1 UNK         0.0812 
    125 H125       30.7535   -0.2875   -8.5505 H         1 UNK         0.3205 
    126 H126       32.5393   -0.8573  -10.6791 H         1 UNK         0.0754 
    127 H127       32.0327   -3.2344  -10.1028 H         1 UNK         0.0769 
    128 H128       30.5690   -2.2611  -10.0958 H         1 UNK         0.0769 
    129 H129       31.3318   -2.7198   -8.5754 H         1 UNK         0.0769 
    130 H130       33.2191   -0.4783   -7.3076 H         1 UNK         0.2981 
    131 H131       35.7625   -1.8950   -7.3505 H         1 UNK         0.0541 
    132 H132       36.4897    1.8417   -8.5893 H         1 UNK         0.3459 
    133 H133       34.8851    1.1581   -8.6757 H         1 UNK         0.3459 
    134 H134       36.0250   -1.1942   -5.0455 H         1 UNK         0.0612 
    135 H135       34.4889   -1.9452   -5.2732 H         1 UNK         0.0612 
    136 H136       32.2055    0.1759   -5.9762 H         1 UNK         0.0624 
    137 H137       31.9742    0.9660   -4.4466 H         1 UNK         0.0624 
@<TRIPOS>BOND
     1    1    2 1    
     2    1   72 1    
     3    1   73 1    
     4    1   74 1    
     5    2    3 2    
     6    2    4 am   BACKBONE|DICT|INTERRES
     7    4    5 1    
     8    4   75 1    
     9    5    6 1    
    10    5   35 1    
    11    5   76 1    
    12    6    7 1    
    13    6   77 1    
    14    6   78 1    
    15    7    8 1    
    16    8    9 1    
    17    8   79 1    
    18    8   80 1    
    19    9   10 ar   
    20    9   14 ar   
    21   10   11 ar   
    22   10   81 1    
    23   11   12 ar   
    24   11   71 1    
    25   12   13 ar   
    26   12   82 1    
    27   13   14 ar   
    28   13   15 1    
    29   14   83 1    
    30   15   16 1    
    31   15   84 1    
    32   15   85 1    
    33   16   17 1    
    34   17   18 1    
    35   17   86 1    
    36   17   87 1    
    37   18   19 1    
    38   18   37 1    
    39   18   88 1    
    40   19   20 am   BACKBONE|DICT|INTERRES
    41   19   89 1    
    42   20   21 2    
    43   20   22 1    
    44   22   23 1    
    45   22   24 1    
    46   22   90 1    
    47   23   91 1    
    48   23   92 1    
    49   23   93 1    
    50   24   25 am   BACKBONE|DICT|INTERRES
    51   24   94 1    
    52   25   26 2    
    53   25   27 1    
    54   27   28 1    
    55   27   29 1    
    56   27   95 1    
    57   28   96 1    
    58   28   97 1    
    59   28   98 1    
    60   29   30 am   BACKBONE|DICT|INTERRES
    61   29   99 1    
    62   30   31 2    
    63   30   32 1    
    64   32   33 1    
    65   32   34 1    
    66   32  100 1    
    67   33  101 1    
    68   33  102 1    
    69   33  103 1    
    70   34   35 am   BACKBONE|DICT|INTERRES
    71   34  104 1    
    72   35   36 2    
    73   37   38 2    
    74   37   39 am   BACKBONE|DICT|INTERRES
    75   39   40 1    
    76   39  105 1    
    77   40   41 1    
    78   40   42 1    
    79   40  106 1    
    80   41  107 1    
    81   41  108 1    
    82   41  109 1    
    83   42   43 2    
    84   42   44 am   BACKBONE|DICT|INTERRES
    85   44   45 1    
    86   44  110 1    
    87   45   46 1    
    88   45   47 1    
    89   45  111 1    
    90   46  112 1    
    91   46  113 1    
    92   46  114 1    
    93   47   48 2    
    94   47   49 am   BACKBONE|DICT|INTERRES
    95   49   50 1    
    96   49  115 1    
    97   50   51 1    
    98   50   52 1    
    99   50  116 1    
   100   51  117 1    
   101   51  118 1    
   102   51  119 1    
   103   52   53 2    
   104   52   54 am   BACKBONE|DICT|INTERRES
   105   54   55 1    
   106   54  120 1    
   107   55   56 1    
   108   55   57 1    
   109   55  121 1    
   110   56  122 1    
   111   56  123 1    
   112   56  124 1    
   113   57   58 2    
   114   57   59 am   BACKBONE|DICT|INTERRES
   115   59   60 1    
   116   59  125 1    
   117   60   61 1    
   118   60   62 1    
   119   60  126 1    
   120   61  127 1    
   121   61  128 1    
   122   61  129 1    
   123   62   63 2    
   124   62   64 am   BACKBONE|DICT|INTERRES
   125   64   65 1    
   126   64  130 1    
   127   65   66 1    
   128   65   69 1    
   129   65  131 1    
   130   66   67 am   BACKBONE|DICT|INTERRES
   131   66   68 2    
   132   67  132 1    
   133   67  133 1    
   134   69   70 1    
   135   69  134 1    
   136   69  135 1    
   137   70   71 1    
   138   71  136 1    
   139   71  137 1    
@<TRIPOS>SUBSTRUCTURE
     1 UNK         1 GROUP             0       ****    0 ROOT    
