@<TRIPOS>MOLECULE
3R137
137   139    1
SMALL
USER_CHARGES


@<TRIPOS>ATOM
      1 CA         28.1590    1.5483    1.1961 C.3       0 UNK        -0.2020 
      2 C          28.3464    0.3965    0.2201 C.2       0 UNK         0.4855 
      3 O          28.5193    0.6316   -0.9746 O.2       0 UNK        -0.5197 
      4 N          28.3226   -0.8442    0.7210 N.am      1 UNK        -0.4892 
      5 CA         28.3977   -2.0676   -0.0823 C.3       1 UNK         0.0835 
      6 C6         29.0305   -3.2165    0.7423 C.3       12 UNK        -0.0855 
      7 S7         29.5450   -4.6683   -0.2394 S.3       12 UNK        -0.2931 
      8 C8         31.1821   -4.1688   -0.8690 C.3       12 UNK         0.0378 
      9 C9         31.0630   -3.4557   -2.2082 C.ar      12 UNK        -0.0802 
     10 C10        31.2377   -2.0727   -2.3018 C.ar      12 UNK        -0.0944 
     11 C11        31.0797   -1.4140   -3.5245 C.ar      12 UNK        -0.0787 
     12 C12        30.7612   -2.1627   -4.6647 C.ar      12 UNK        -0.0862 
     13 C13        30.6239   -3.5559   -4.5971 C.ar      12 UNK        -0.0733 
     14 C14        30.7728   -4.1895   -3.3608 C.ar      12 UNK        -0.0832 
     15 C15        30.3457   -4.4240   -5.8264 C.3       12 UNK         0.0240 
     16 S16        29.6294   -3.5634   -7.2656 S.3       12 UNK        -0.2522 
     17 C17        28.0024   -3.0852   -6.6114 C.3       12 UNK        -0.0967 
     18 CA         27.3427   -1.9460   -7.4226 C.3       5 UNK         0.0660 
     19 N          25.8979   -1.9180   -7.1900 N.am      5 UNK        -0.4015 
     20 C          25.0087   -1.2335   -7.9204 C.2       4 UNK         0.4946 
     21 O          25.3020   -0.5576   -8.9056 O.2       4 UNK        -0.5353 
     22 CA         23.5460   -1.2923   -7.4481 C.3       4 UNK         0.0277 
     23 CB         22.8482   -2.5452   -8.0010 C.3       4 UNK        -0.1981 
     24 N          23.4191   -1.2595   -5.9872 N.am      4 UNK        -0.4209 
     25 C          23.7321   -0.1951   -5.2348 C.2       3 UNK         0.4942 
     26 O          24.1358    0.8713   -5.6950 O.2       3 UNK        -0.5208 
     27 CA         23.6149   -0.3546   -3.7107 C.3       3 UNK         0.0250 
     28 CB         22.1599   -0.1560   -3.2565 C.3       3 UNK        -0.1990 
     29 N          24.1278   -1.6262   -3.1864 N.am      3 UNK        -0.4232 
     30 C          25.3756   -2.0835   -3.3598 C.2       2 UNK         0.4993 
     31 O          26.2077   -1.5560   -4.1012 O.2       2 UNK        -0.5286 
     32 CA         25.7693   -3.3465   -2.5816 C.3       2 UNK         0.0209 
     33 CB         26.0182   -4.5295   -3.5313 C.3       2 UNK        -0.1931 
     34 N          26.9841   -3.0781   -1.8140 N.am      2 UNK        -0.4546 
     35 C          27.0066   -2.4179   -0.6495 C.2       1 UNK         0.5154 
     36 O          25.9884   -2.0937   -0.0305 O.2       1 UNK        -0.5181 
     37 C          27.9810   -0.5717   -7.1332 C.2       5 UNK         0.5014 
     38 O          28.8047   -0.1011   -7.9218 O.2       5 UNK        -0.5248 
     39 N          27.5482    0.0609   -6.0327 N.am      6 UNK        -0.4434 
     40 CA         27.9118    1.4228   -5.6473 C.3       6 UNK         0.0363 
     41 CB         27.3828    1.7164   -4.2358 C.3       6 UNK        -0.1936 
     42 C          27.4159    2.4743   -6.6527 C.2       6 UNK         0.5081 
     43 O          28.1903    3.3537   -7.0270 O.2       6 UNK        -0.5248 
     44 N          26.1588    2.3506   -7.1056 N.am      7 UNK        -0.4718 
     45 CA         25.5508    3.2137   -8.1257 C.3       7 UNK         0.0273 
     46 CB         24.0500    2.9059   -8.2442 C.3       7 UNK        -0.1935 
     47 C          26.2357    3.1024   -9.4983 C.2       7 UNK         0.5018 
     48 O          26.4121    4.1197  -10.1694 O.2       7 UNK        -0.5186 
     49 N          26.6419    1.8813   -9.8735 N.am      8 UNK        -0.4240 
     50 CA         27.4505    1.6016  -11.0636 C.3       8 UNK         0.0235 
     51 CB         27.3872    0.0951  -11.3675 C.3       8 UNK        -0.2000 
     52 C          28.9186    2.0527  -10.9328 C.2       8 UNK         0.4941 
     53 O          29.6098    2.1162  -11.9503 O.2       8 UNK        -0.5273 
     54 N          29.3708    2.3276   -9.6985 N.am      9 UNK        -0.4262 
     55 CA         30.7445    2.6414   -9.2904 C.3       9 UNK         0.0264 
     56 CB         31.1934    4.0043   -9.8580 C.3       9 UNK        -0.1955 
     57 C          31.7261    1.4970   -9.6085 C.2       9 UNK         0.5031 
     58 O          32.8694    1.7498   -9.9928 O.2       9 UNK        -0.5390 
     59 N          31.2632    0.2522   -9.4346 N.am      10 UNK        -0.4204 
     60 CA         31.9969   -0.9759   -9.7531 C.3       10 UNK         0.0237 
     61 CB         31.0166   -1.9758  -10.3933 C.3       10 UNK        -0.1985 
     62 C          32.7339   -1.5552   -8.5284 C.2       10 UNK         0.4970 
     63 O          32.9983   -2.7573   -8.4847 O.2       10 UNK        -0.4914 
     64 N          33.0546   -0.6919   -7.5574 N.am      11 UNK        -0.4285 
     65 CA         33.6885   -1.0258   -6.2725 C.3       11 UNK         0.1007 
     66 C          35.1764   -1.4743   -6.3616 C.2       11 UNK         0.5703 
     67 N          35.8607   -1.2976   -7.4858 N.am      11 UNK        -0.7361 
     68 O          35.7195   -1.9953   -5.3904 O.2       11 UNK        -0.4986 
     69 C69        33.5219    0.1244   -5.2397 C.3       12 UNK        -0.0947 
     70 S70        31.8230    0.7919   -5.1453 S.3       12 UNK        -0.2240 
     71 C71        31.2177    0.1078   -3.5651 C.3       12 UNK         0.0194 
     72 H72        27.2790    2.1302    0.9233 H         1 UNK         0.0906 
     73 H73        29.0258    2.2080    1.1680 H         1 UNK         0.0906 
     74 H74        28.0312    1.1997    2.2207 H         1 UNK         0.0906 
     75 H75        28.1281   -0.9778    1.7034 H         1 UNK         0.3140 
     76 H76        29.0411   -1.8598   -0.9347 H         1 UNK         0.1085 
     77 H77        28.3381   -3.5547    1.5157 H         1 UNK         0.0836 
     78 H78        29.9077   -2.8498    1.2781 H         1 UNK         0.0836 
     79 H79        31.6993   -3.5485   -0.1354 H         1 UNK         0.0731 
     80 H80        31.7958   -5.0621   -0.9947 H         1 UNK         0.0731 
     81 H81        31.4687   -1.5016   -1.4126 H         1 UNK         0.1312 
     82 H82        30.6364   -1.6558   -5.6103 H         1 UNK         0.1406 
     83 H83        30.6572   -5.2631   -3.2901 H         1 UNK         0.1631 
     84 H84        29.6798   -5.2451   -5.5563 H         1 UNK         0.0717 
     85 H85        31.2863   -4.8785   -6.1403 H         1 UNK         0.0717 
     86 H86        27.3786   -3.9799   -6.6442 H         1 UNK         0.0934 
     87 H87        28.0873   -2.8141   -5.5578 H         1 UNK         0.0934 
     88 H88        27.4858   -2.1537   -8.4856 H         1 UNK         0.0739 
     89 H89        25.5710   -2.3866   -6.3584 H         1 UNK         0.3093 
     90 H90        23.0353   -0.4145   -7.8500 H         1 UNK         0.0818 
     91 H91        22.9167   -2.5796   -9.0894 H         1 UNK         0.0819 
     92 H92        23.2947   -3.4634   -7.6175 H         1 UNK         0.0819 
     93 H93        21.7885   -2.5542   -7.7454 H         1 UNK         0.0819 
     94 H94        23.0861   -2.0955   -5.5290 H         1 UNK         0.3041 
     95 H95        24.2173    0.4379   -3.2613 H         1 UNK         0.0784 
     96 H96        21.7627    0.7919   -3.6228 H         1 UNK         0.0793 
     97 H97        21.5072   -0.9476   -3.6265 H         1 UNK         0.0793 
     98 H98        22.0823   -0.1370   -2.1692 H         1 UNK         0.0793 
     99 H99        23.5113   -2.1306   -2.5653 H         1 UNK         0.3024 
    100 H100       24.9632   -3.6192   -1.8963 H         1 UNK         0.1171 
    101 H101       25.1445   -4.7247   -4.1546 H         1 UNK         0.0786 
    102 H102       26.8628   -4.3480   -4.1949 H         1 UNK         0.0786 
    103 H103       26.2280   -5.4424   -2.9736 H         1 UNK         0.0786 
    104 H104       27.8609   -3.2978   -2.2653 H         1 UNK         0.2977 
    105 H105       26.9200   -0.4367   -5.4035 H         1 UNK         0.3127 
    106 H106       29.0009    1.4769   -5.6215 H         1 UNK         0.0770 
    107 H107       26.2935    1.7026   -4.1994 H         1 UNK         0.0814 
    108 H108       27.7110    2.6979   -3.8920 H         1 UNK         0.0814 
    109 H109       27.7467    0.9811   -3.5184 H         1 UNK         0.0814 
    110 H110       25.5570    1.6397   -6.6953 H         1 UNK         0.2983 
    111 H111       25.6603    4.2471   -7.7897 H         1 UNK         0.0947 
    112 H112       23.8732    1.8728   -8.5445 H         1 UNK         0.0806 
    113 H113       23.5760    3.5486   -8.9873 H         1 UNK         0.0806 
    114 H114       23.5356    3.0719   -7.2976 H         1 UNK         0.0806 
    115 H115       26.3798    1.0823   -9.3023 H         1 UNK         0.3000 
    116 H116       27.0167    2.1415  -11.9079 H         1 UNK         0.0850 
    117 H117       27.9531   -0.1487  -12.2676 H         1 UNK         0.0810 
    118 H118       26.3609   -0.2340  -11.5309 H         1 UNK         0.0810 
    119 H119       27.8021   -0.4971  -10.5509 H         1 UNK         0.0810 
    120 H120       28.7135    2.2387   -8.9331 H         1 UNK         0.3040 
    121 H121       30.7235    2.7272   -8.2028 H         1 UNK         0.0766 
    122 H122       31.2950    3.9783  -10.9433 H         1 UNK         0.0812 
    123 H123       32.1603    4.2986   -9.4483 H         1 UNK         0.0812 
    124 H124       30.4821    4.7907   -9.6054 H         1 UNK         0.0812 
    125 H125       30.3368    0.1336   -9.0249 H         1 UNK         0.3205 
    126 H126       32.7670   -0.7582  -10.4958 H         1 UNK         0.0754 
    127 H127       31.5058   -2.9200  -10.6358 H         1 UNK         0.0769 
    128 H128       30.6060   -1.5792  -11.3222 H         1 UNK         0.0769 
    129 H129       30.1787   -2.1963   -9.7332 H         1 UNK         0.0769 
    130 H130       32.8109    0.2784   -7.6835 H         1 UNK         0.2981 
    131 H131       33.1576   -1.8951   -5.8846 H         1 UNK         0.0541 
    132 H132       36.8225   -1.5951   -7.5311 H         1 UNK         0.3459 
    133 H133       35.4239   -0.8727   -8.2876 H         1 UNK         0.3459 
    134 H134       34.1797    0.9568   -5.4961 H         1 UNK         0.0612 
    135 H135       33.8299   -0.2089   -4.2470 H         1 UNK         0.0612 
    136 H136       31.8811    0.4490   -2.7689 H         1 UNK         0.0624 
    137 H137       30.2394    0.5420   -3.3569 H         1 UNK         0.0624 
@<TRIPOS>BOND
     1    1    2 1    
     2    1   72 1    
     3    1   73 1    
     4    1   74 1    
     5    2    3 2    
     6    2    4 am   BACKBONE|DICT|INTERRES
     7    4    5 1    
     8    4   75 1    
     9    5    6 1    
    10    5   35 1    
    11    5   76 1    
    12    6    7 1    
    13    6   77 1    
    14    6   78 1    
    15    7    8 1    
    16    8    9 1    
    17    8   79 1    
    18    8   80 1    
    19    9   10 ar   
    20    9   14 ar   
    21   10   11 ar   
    22   10   81 1    
    23   11   12 ar   
    24   11   71 1    
    25   12   13 ar   
    26   12   82 1    
    27   13   14 ar   
    28   13   15 1    
    29   14   83 1    
    30   15   16 1    
    31   15   84 1    
    32   15   85 1    
    33   16   17 1    
    34   17   18 1    
    35   17   86 1    
    36   17   87 1    
    37   18   19 1    
    38   18   37 1    
    39   18   88 1    
    40   19   20 am   BACKBONE|DICT|INTERRES
    41   19   89 1    
    42   20   21 2    
    43   20   22 1    
    44   22   23 1    
    45   22   24 1    
    46   22   90 1    
    47   23   91 1    
    48   23   92 1    
    49   23   93 1    
    50   24   25 am   BACKBONE|DICT|INTERRES
    51   24   94 1    
    52   25   26 2    
    53   25   27 1    
    54   27   28 1    
    55   27   29 1    
    56   27   95 1    
    57   28   96 1    
    58   28   97 1    
    59   28   98 1    
    60   29   30 am   BACKBONE|DICT|INTERRES
    61   29   99 1    
    62   30   31 2    
    63   30   32 1    
    64   32   33 1    
    65   32   34 1    
    66   32  100 1    
    67   33  101 1    
    68   33  102 1    
    69   33  103 1    
    70   34   35 am   BACKBONE|DICT|INTERRES
    71   34  104 1    
    72   35   36 2    
    73   37   38 2    
    74   37   39 am   BACKBONE|DICT|INTERRES
    75   39   40 1    
    76   39  105 1    
    77   40   41 1    
    78   40   42 1    
    79   40  106 1    
    80   41  107 1    
    81   41  108 1    
    82   41  109 1    
    83   42   43 2    
    84   42   44 am   BACKBONE|DICT|INTERRES
    85   44   45 1    
    86   44  110 1    
    87   45   46 1    
    88   45   47 1    
    89   45  111 1    
    90   46  112 1    
    91   46  113 1    
    92   46  114 1    
    93   47   48 2    
    94   47   49 am   BACKBONE|DICT|INTERRES
    95   49   50 1    
    96   49  115 1    
    97   50   51 1    
    98   50   52 1    
    99   50  116 1    
   100   51  117 1    
   101   51  118 1    
   102   51  119 1    
   103   52   53 2    
   104   52   54 am   BACKBONE|DICT|INTERRES
   105   54   55 1    
   106   54  120 1    
   107   55   56 1    
   108   55   57 1    
   109   55  121 1    
   110   56  122 1    
   111   56  123 1    
   112   56  124 1    
   113   57   58 2    
   114   57   59 am   BACKBONE|DICT|INTERRES
   115   59   60 1    
   116   59  125 1    
   117   60   61 1    
   118   60   62 1    
   119   60  126 1    
   120   61  127 1    
   121   61  128 1    
   122   61  129 1    
   123   62   63 2    
   124   62   64 am   BACKBONE|DICT|INTERRES
   125   64   65 1    
   126   64  130 1    
   127   65   66 1    
   128   65   69 1    
   129   65  131 1    
   130   66   67 am   BACKBONE|DICT|INTERRES
   131   66   68 2    
   132   67  132 1    
   133   67  133 1    
   134   69   70 1    
   135   69  134 1    
   136   69  135 1    
   137   70   71 1    
   138   71  136 1    
   139   71  137 1    
@<TRIPOS>SUBSTRUCTURE
     1 UNK         1 GROUP             0       ****    0 ROOT    
