@<TRIPOS>MOLECULE
3R137
137   139    1
SMALL
USER_CHARGES


@<TRIPOS>ATOM
      1 CA         29.0078   -7.4316   -4.6577 C.3       0 UNK        -0.2020 
      2 C          28.4296   -6.5678   -3.5469 C.2       0 UNK         0.4855 
      3 O          27.6026   -7.0443   -2.7683 O.2       0 UNK        -0.5197 
      4 N          28.8708   -5.3072   -3.4609 N.am      1 UNK        -0.4892 
      5 CA         28.3960   -4.3070   -2.4987 C.3       1 UNK         0.0835 
      6 C6         29.3784   -3.1081   -2.4216 C.3       12 UNK        -0.0855 
      7 S7         29.6197   -2.5265   -0.7110 S.3       12 UNK        -0.2931 
      8 C8         31.3972   -2.0945   -0.7307 C.3       12 UNK         0.0378 
      9 C9         31.7029   -0.9635   -1.7067 C.ar      12 UNK        -0.0802 
     10 C10        32.7039   -1.0976   -2.6749 C.ar      12 UNK        -0.0944 
     11 C11        32.9594   -0.0572   -3.5755 C.ar      12 UNK        -0.0787 
     12 C12        32.1731    1.0982   -3.5340 C.ar      12 UNK        -0.0862 
     13 C13        31.1633    1.2425   -2.5787 C.ar      12 UNK        -0.0733 
     14 C14        30.9732    0.2248   -1.6385 C.ar      12 UNK        -0.0832 
     15 C15        30.3059    2.5076   -2.5885 C.3       12 UNK         0.0240 
     16 S16        28.6419    2.3330   -1.8451 S.3       12 UNK        -0.2522 
     17 C17        27.8963    0.8996   -2.7105 C.3       12 UNK        -0.0967 
     18 CA         27.9513    0.9305   -4.2596 C.3       5 UNK         0.0660 
     19 N          27.4809   -0.3233   -4.8562 N.am      5 UNK        -0.4015 
     20 C          27.8265   -0.7607   -6.0791 C.2       4 UNK         0.4946 
     21 O          28.7248   -0.2576   -6.7551 O.2       4 UNK        -0.5353 
     22 CA         27.0337   -1.9407   -6.6785 C.3       4 UNK         0.0277 
     23 CB         27.8615   -3.2321   -6.6783 C.3       4 UNK        -0.1981 
     24 N          25.7619   -2.1875   -6.0007 N.am      4 UNK        -0.4209 
     25 C          24.6741   -1.4183   -6.1494 C.2       3 UNK         0.4942 
     26 O          24.6315   -0.4501   -6.9073 O.2       3 UNK        -0.5208 
     27 CA         23.4512   -1.7352   -5.2674 C.3       3 UNK         0.0250 
     28 CB         22.4564   -2.6229   -6.0309 C.3       3 UNK        -0.1990 
     29 N          23.7851   -2.3676   -3.9861 N.am      3 UNK        -0.4232 
     30 C          24.5992   -1.8453   -3.0578 C.2       2 UNK         0.4993 
     31 O          25.1391   -0.7453   -3.1808 O.2       2 UNK        -0.5286 
     32 CA         24.9235   -2.7074   -1.8213 C.3       2 UNK         0.0209 
     33 CB         23.9602   -3.8999   -1.6224 C.3       2 UNK        -0.1931 
     34 N          26.3167   -3.1827   -1.8185 N.am      2 UNK        -0.4546 
     35 C          26.9463   -3.8524   -2.7971 C.2       1 UNK         0.5154 
     36 O          26.4331   -4.0942   -3.8940 O.2       1 UNK        -0.5181 
     37 C          27.1365    2.1065   -4.8254 C.2       5 UNK         0.5014 
     38 O          27.7251    3.1212   -5.1951 O.2       5 UNK        -0.5248 
     39 N          25.8065    1.9411   -4.9216 N.am      6 UNK        -0.4434 
     40 CA         24.8849    2.9307   -5.4940 C.3       6 UNK         0.0363 
     41 CB         23.4328    2.4705   -5.2898 C.3       6 UNK        -0.1936 
     42 C          25.1637    3.2285   -6.9792 C.2       6 UNK         0.5081 
     43 O          25.0615    4.3822   -7.3961 O.2       6 UNK        -0.5248 
     44 N          25.5548    2.1943   -7.7369 N.am      7 UNK        -0.4718 
     45 CA         26.0345    2.2981   -9.1187 C.3       7 UNK         0.0273 
     46 CB         26.0561    0.8934   -9.7416 C.3       7 UNK        -0.1935 
     47 C          27.4230    2.9568   -9.2498 C.2       7 UNK         0.5018 
     48 O          27.7705    3.3946  -10.3478 O.2       7 UNK        -0.5186 
     49 N          28.1866    3.0074   -8.1473 N.am      8 UNK        -0.4240 
     50 CA         29.5441    3.5383   -7.9770 C.3       8 UNK         0.0235 
     51 CB         29.5999    5.0554   -8.2475 C.3       8 UNK        -0.2000 
     52 C          30.6081    2.7705   -8.7746 C.2       8 UNK         0.4941 
     53 O          31.4671    2.1202   -8.1789 O.2       8 UNK        -0.5273 
     54 N          30.5297    2.8369  -10.1072 N.am      9 UNK        -0.4262 
     55 CA         31.4305    2.1729  -11.0485 C.3       9 UNK         0.0264 
     56 CB         31.4409    2.9686  -12.3674 C.3       9 UNK        -0.1955 
     57 C          31.0378    0.6968  -11.2441 C.2       9 UNK         0.5031 
     58 O          30.7463    0.2808  -12.3678 O.2       9 UNK        -0.5390 
     59 N          31.0193   -0.0647  -10.1448 N.am      10 UNK        -0.4204 
     60 CA         30.6768   -1.4830  -10.1237 C.3       10 UNK         0.0237 
     61 CB         29.1503   -1.6790  -10.0582 C.3       10 UNK        -0.1985 
     62 C          31.4122   -2.1887   -8.9826 C.2       10 UNK         0.4970 
     63 O          32.2684   -3.0285   -9.2607 O.2       10 UNK        -0.4914 
     64 N          31.0600   -1.8565   -7.7319 N.am      11 UNK        -0.4285 
     65 CA         31.5745   -2.4360   -6.4714 C.3       11 UNK         0.1007 
     66 C          31.2422   -3.9403   -6.2382 C.2       11 UNK         0.5703 
     67 N          31.1616   -4.7764   -7.2632 N.am      11 UNK        -0.7361 
     68 O          31.0165   -4.3493   -5.1036 O.2       11 UNK        -0.4986 
     69 C69        33.0894   -2.1868   -6.2434 C.3       12 UNK        -0.0947 
     70 S70        33.5310   -0.4192   -6.2759 S.3       12 UNK        -0.2240 
     71 C71        34.1070   -0.1523   -4.5713 C.3       12 UNK         0.0194 
     72 H72        28.2216   -7.7207   -5.3546 H         1 UNK         0.0906 
     73 H73        29.7826   -6.9085   -5.2174 H         1 UNK         0.0906 
     74 H74        29.4458   -8.3379   -4.2406 H         1 UNK         0.0906 
     75 H75        29.5773   -4.9818   -4.1179 H         1 UNK         0.3140 
     76 H76        28.3734   -4.8116   -1.5298 H         1 UNK         0.1085 
     77 H77        29.0727   -2.2751   -3.0580 H         1 UNK         0.0836 
     78 H78        30.3606   -3.4027   -2.7926 H         1 UNK         0.0836 
     79 H79        31.9798   -2.9858   -0.9694 H         1 UNK         0.0731 
     80 H80        31.6981   -1.7869    0.2716 H         1 UNK         0.0731 
     81 H81        33.2935   -2.0031   -2.7183 H         1 UNK         0.1312 
     82 H82        32.3549    1.8897   -4.2489 H         1 UNK         0.1406 
     83 H83        30.2218    0.3289   -0.8686 H         1 UNK         0.1631 
     84 H84        30.1894    2.8726   -3.6102 H         1 UNK         0.0717 
     85 H85        30.8410    3.2885   -2.0471 H         1 UNK         0.0717 
     86 H86        28.3711   -0.0107   -2.3463 H         1 UNK         0.0934 
     87 H87        26.8655    0.8371   -2.3628 H         1 UNK         0.0934 
     88 H88        28.9909    1.0666   -4.5627 H         1 UNK         0.0739 
     89 H89        26.7128   -0.7755   -4.3708 H         1 UNK         0.3093 
     90 H90        26.8112   -1.6920   -7.7178 H         1 UNK         0.0818 
     91 H91        28.6752   -3.1651   -7.3971 H         1 UNK         0.0819 
     92 H92        27.2605   -4.0957   -6.9636 H         1 UNK         0.0819 
     93 H93        28.2951   -3.4361   -5.6996 H         1 UNK         0.0819 
     94 H94        25.7488   -2.9488   -5.3254 H         1 UNK         0.3041 
     95 H95        22.9600   -0.7866   -5.0426 H         1 UNK         0.0784 
     96 H96        22.1718   -2.1633   -6.9787 H         1 UNK         0.0793 
     97 H97        22.8805   -3.6020   -6.2576 H         1 UNK         0.0793 
     98 H98        21.5404   -2.7761   -5.4600 H         1 UNK         0.0793 
     99 H99        23.4139   -3.2929   -3.8255 H         1 UNK         0.3024 
    100 H100       24.8132   -2.0448   -0.9611 H         1 UNK         0.1171 
    101 H101       24.1564   -4.4020   -0.6749 H         1 UNK         0.0786 
    102 H102       22.9204   -3.5706   -1.5955 H         1 UNK         0.0786 
    103 H103       24.0561   -4.6475   -2.4109 H         1 UNK         0.0786 
    104 H104       26.8436   -2.9743   -0.9804 H         1 UNK         0.2977 
    105 H105       25.3972    1.0845   -4.5709 H         1 UNK         0.3127 
    106 H106       25.0257    3.8623   -4.9416 H         1 UNK         0.0770 
    107 H107       23.2135    1.5589   -5.8453 H         1 UNK         0.0814 
    108 H108       22.7339    3.2337   -5.6347 H         1 UNK         0.0814 
    109 H109       23.2163    2.2854   -4.2376 H         1 UNK         0.0814 
    110 H110       25.4957    1.2599   -7.3409 H         1 UNK         0.2983 
    111 H111       25.3285    2.9142   -9.6797 H         1 UNK         0.0947 
    112 H112       26.3784    0.9293  -10.7832 H         1 UNK         0.0806 
    113 H113       25.0673    0.4346   -9.7227 H         1 UNK         0.0806 
    114 H114       26.7410    0.2332   -9.2104 H         1 UNK         0.0806 
    115 H115       27.7830    2.6398   -7.2945 H         1 UNK         0.3000 
    116 H116       29.7870    3.3909   -6.9235 H         1 UNK         0.0850 
    117 H117       30.6013    5.4461   -8.0629 H         1 UNK         0.0810 
    118 H118       28.9163    5.5944   -7.5913 H         1 UNK         0.0810 
    119 H119       29.3391    5.3050   -9.2762 H         1 UNK         0.0810 
    120 H120       29.7039    3.2850  -10.4954 H         1 UNK         0.3040 
    121 H121       32.4447    2.1881  -10.6432 H         1 UNK         0.0766 
    122 H122       31.7665    3.9965  -12.2075 H         1 UNK         0.0812 
    123 H123       30.4528    2.9978  -12.8287 H         1 UNK         0.0812 
    124 H124       32.1263    2.5217  -13.0889 H         1 UNK         0.0812 
    125 H125       31.2887    0.3632   -9.2624 H         1 UNK         0.3205 
    126 H126       31.0315   -1.9429  -11.0492 H         1 UNK         0.0754 
    127 H127       28.8914   -2.7330   -9.9501 H         1 UNK         0.0769 
    128 H128       28.6689   -1.3200  -10.9681 H         1 UNK         0.0769 
    129 H129       28.7101   -1.1408   -9.2213 H         1 UNK         0.0769 
    130 H130       30.3203   -1.1732   -7.5990 H         1 UNK         0.2981 
    131 H131       31.0416   -1.8984   -5.6852 H         1 UNK         0.0541 
    132 H132       31.4242   -4.4469   -8.1840 H         1 UNK         0.3459 
    133 H133       30.9434   -5.7467   -7.1093 H         1 UNK         0.3459 
    134 H134       33.4026   -2.6120   -5.2883 H         1 UNK         0.0612 
    135 H135       33.6834   -2.6967   -7.0032 H         1 UNK         0.0612 
    136 H136       34.8061   -0.9417   -4.2908 H         1 UNK         0.0624 
    137 H137       34.6773    0.7772   -4.5427 H         1 UNK         0.0624 
@<TRIPOS>BOND
     1    1    2 1    
     2    1   72 1    
     3    1   73 1    
     4    1   74 1    
     5    2    3 2    
     6    2    4 am   BACKBONE|DICT|INTERRES
     7    4    5 1    
     8    4   75 1    
     9    5    6 1    
    10    5   35 1    
    11    5   76 1    
    12    6    7 1    
    13    6   77 1    
    14    6   78 1    
    15    7    8 1    
    16    8    9 1    
    17    8   79 1    
    18    8   80 1    
    19    9   10 ar   
    20    9   14 ar   
    21   10   11 ar   
    22   10   81 1    
    23   11   12 ar   
    24   11   71 1    
    25   12   13 ar   
    26   12   82 1    
    27   13   14 ar   
    28   13   15 1    
    29   14   83 1    
    30   15   16 1    
    31   15   84 1    
    32   15   85 1    
    33   16   17 1    
    34   17   18 1    
    35   17   86 1    
    36   17   87 1    
    37   18   19 1    
    38   18   37 1    
    39   18   88 1    
    40   19   20 am   BACKBONE|DICT|INTERRES
    41   19   89 1    
    42   20   21 2    
    43   20   22 1    
    44   22   23 1    
    45   22   24 1    
    46   22   90 1    
    47   23   91 1    
    48   23   92 1    
    49   23   93 1    
    50   24   25 am   BACKBONE|DICT|INTERRES
    51   24   94 1    
    52   25   26 2    
    53   25   27 1    
    54   27   28 1    
    55   27   29 1    
    56   27   95 1    
    57   28   96 1    
    58   28   97 1    
    59   28   98 1    
    60   29   30 am   BACKBONE|DICT|INTERRES
    61   29   99 1    
    62   30   31 2    
    63   30   32 1    
    64   32   33 1    
    65   32   34 1    
    66   32  100 1    
    67   33  101 1    
    68   33  102 1    
    69   33  103 1    
    70   34   35 am   BACKBONE|DICT|INTERRES
    71   34  104 1    
    72   35   36 2    
    73   37   38 2    
    74   37   39 am   BACKBONE|DICT|INTERRES
    75   39   40 1    
    76   39  105 1    
    77   40   41 1    
    78   40   42 1    
    79   40  106 1    
    80   41  107 1    
    81   41  108 1    
    82   41  109 1    
    83   42   43 2    
    84   42   44 am   BACKBONE|DICT|INTERRES
    85   44   45 1    
    86   44  110 1    
    87   45   46 1    
    88   45   47 1    
    89   45  111 1    
    90   46  112 1    
    91   46  113 1    
    92   46  114 1    
    93   47   48 2    
    94   47   49 am   BACKBONE|DICT|INTERRES
    95   49   50 1    
    96   49  115 1    
    97   50   51 1    
    98   50   52 1    
    99   50  116 1    
   100   51  117 1    
   101   51  118 1    
   102   51  119 1    
   103   52   53 2    
   104   52   54 am   BACKBONE|DICT|INTERRES
   105   54   55 1    
   106   54  120 1    
   107   55   56 1    
   108   55   57 1    
   109   55  121 1    
   110   56  122 1    
   111   56  123 1    
   112   56  124 1    
   113   57   58 2    
   114   57   59 am   BACKBONE|DICT|INTERRES
   115   59   60 1    
   116   59  125 1    
   117   60   61 1    
   118   60   62 1    
   119   60  126 1    
   120   61  127 1    
   121   61  128 1    
   122   61  129 1    
   123   62   63 2    
   124   62   64 am   BACKBONE|DICT|INTERRES
   125   64   65 1    
   126   64  130 1    
   127   65   66 1    
   128   65   69 1    
   129   65  131 1    
   130   66   67 am   BACKBONE|DICT|INTERRES
   131   66   68 2    
   132   67  132 1    
   133   67  133 1    
   134   69   70 1    
   135   69  134 1    
   136   69  135 1    
   137   70   71 1    
   138   71  136 1    
   139   71  137 1    
@<TRIPOS>SUBSTRUCTURE
     1 UNK         1 GROUP             0       ****    0 ROOT    
