@<TRIPOS>MOLECULE
3R137
137   139    1
SMALL
USER_CHARGES


@<TRIPOS>ATOM
      1 CA         26.3271   -6.9808   -5.1108 C.3       0 UNK        -0.2020 
      2 C          26.2520   -6.1351   -3.8489 C.2       0 UNK         0.4855 
      3 O          25.1767   -5.6434   -3.5038 O.2       0 UNK        -0.5197 
      4 N          27.3841   -5.9574   -3.1547 N.am      1 UNK        -0.4892 
      5 CA         27.5007   -5.0990   -1.9720 C.3       1 UNK         0.0835 
      6 C6         28.8366   -5.3377   -1.2284 C.3       12 UNK        -0.0855 
      7 S7         28.9223   -4.4593    0.3737 S.3       12 UNK        -0.2931 
      8 C8         30.5503   -3.6442    0.2963 C.3       12 UNK         0.0378 
      9 C9         30.6611   -2.6113   -0.8201 C.ar      12 UNK        -0.0802 
     10 C10        31.3698   -2.9195   -1.9847 C.ar      12 UNK        -0.0944 
     11 C11        31.5412   -1.9633   -2.9872 C.ar      12 UNK        -0.0787 
     12 C12        31.0049   -0.6838   -2.8183 C.ar      12 UNK        -0.0862 
     13 C13        30.2979   -0.3551   -1.6564 C.ar      12 UNK        -0.0733 
     14 C14        30.1179   -1.3304   -0.6664 C.ar      12 UNK        -0.0832 
     15 C15        29.8012    1.0696   -1.4286 C.3       12 UNK         0.0240 
     16 S16        28.3687    1.5112   -2.4648 S.3       12 UNK        -0.2522 
     17 C17        29.1533    2.2946   -3.9152 C.3       12 UNK        -0.0967 
     18 CA         28.5076    1.9478   -5.2816 C.3       5 UNK         0.0660 
     19 N          28.2842    0.5161   -5.4907 N.am      5 UNK        -0.4015 
     20 C          28.2647   -0.0575   -6.7016 C.2       4 UNK         0.4946 
     21 O          28.4989    0.5492   -7.7495 O.2       4 UNK        -0.5353 
     22 CA         27.9161   -1.5522   -6.7623 C.3       4 UNK         0.0277 
     23 CB         29.1308   -2.4104   -6.3789 C.3       4 UNK        -0.1981 
     24 N          26.7757   -1.9064   -5.9159 N.am      4 UNK        -0.4209 
     25 C          25.5193   -1.4801   -6.1251 C.2       3 UNK         0.4942 
     26 O          25.1969   -0.7330   -7.0468 O.2       3 UNK        -0.5208 
     27 CA         24.4394   -1.9262   -5.1223 C.3       3 UNK         0.0250 
     28 CB         23.7906   -3.2395   -5.5852 C.3       3 UNK        -0.1990 
     29 N          24.9461   -2.0802   -3.7576 N.am      3 UNK        -0.4232 
     30 C          25.5336   -1.1012   -3.0531 C.2       2 UNK         0.4993 
     31 O          25.6101    0.0604   -3.4498 O.2       2 UNK        -0.5286 
     32 CA         26.1950   -1.4768   -1.7154 C.3       2 UNK         0.0209 
     33 CB         25.3309   -1.0080   -0.5347 C.3       2 UNK        -0.1931 
     34 N          26.5036   -2.9009   -1.5574 N.am      2 UNK        -0.4546 
     35 C          27.2994   -3.6199   -2.3625 C.2       1 UNK         0.5154 
     36 O          27.8331   -3.1742   -3.3823 O.2       1 UNK        -0.5181 
     37 C          27.2404    2.7741   -5.5779 C.2       5 UNK         0.5014 
     38 O          27.3679    3.8476   -6.1675 O.2       5 UNK        -0.5248 
     39 N          26.0474    2.2679   -5.2235 N.am      6 UNK        -0.4434 
     40 CA         24.7623    2.9309   -5.4840 C.3       6 UNK         0.0363 
     41 CB         23.6243    2.1790   -4.7781 C.3       6 UNK        -0.1936 
     42 C          24.4468    3.1002   -6.9808 C.2       6 UNK         0.5081 
     43 O          23.9340    4.1489   -7.3720 O.2       6 UNK        -0.5248 
     44 N          24.7853    2.0917   -7.7968 N.am      7 UNK        -0.4718 
     45 CA         24.6713    2.1401   -9.2591 C.3       7 UNK         0.0273 
     46 CB         24.6169    0.7036   -9.8062 C.3       7 UNK        -0.1935 
     47 C          25.8133    2.9204   -9.9382 C.2       7 UNK         0.5018 
     48 O          25.7508    3.1221  -11.1516 O.2       7 UNK        -0.5186 
     49 N          26.8408    3.3106   -9.1664 N.am      8 UNK        -0.4240 
     50 CA         28.0903    3.9517   -9.5951 C.3       8 UNK         0.0235 
     51 CB         27.8251    5.3605  -10.1676 C.3       8 UNK        -0.2000 
     52 C          28.9370    3.0679  -10.5344 C.2       8 UNK         0.4941 
     53 O          29.6872    3.5924  -11.3597 O.2       8 UNK        -0.5273 
     54 N          28.8155    1.7422  -10.3820 N.am      9 UNK        -0.4262 
     55 CA         29.6139    0.7431  -11.0923 C.3       9 UNK         0.0264 
     56 CB         28.8406   -0.5855  -11.1346 C.3       9 UNK        -0.1955 
     57 C          30.9881    0.5489  -10.4314 C.2       9 UNK         0.5031 
     58 O          31.9629    0.2947  -11.1407 O.2       9 UNK        -0.5390 
     59 N          31.0250    0.6907   -9.0964 N.am      10 UNK        -0.4204 
     60 CA         32.1632    0.5116   -8.1883 C.3       10 UNK         0.0237 
     61 CB         33.3330    1.4487   -8.5613 C.3       10 UNK        -0.1985 
     62 C          32.6043   -0.9591   -8.0622 C.2       10 UNK         0.4970 
     63 O          32.0522   -1.8449   -8.7191 O.2       10 UNK        -0.4914 
     64 N          33.5594   -1.1985   -7.1581 N.am      11 UNK        -0.4285 
     65 CA         34.0908   -2.5297   -6.8383 C.3       11 UNK         0.1007 
     66 C          34.9317   -3.1311   -7.9981 C.2       11 UNK         0.5703 
     67 N          34.9051   -4.4463   -8.1675 N.am      11 UNK        -0.7361 
     68 O          35.6393   -2.4239   -8.7137 O.2       11 UNK        -0.4986 
     69 C69        34.9113   -2.5070   -5.5209 C.3       12 UNK        -0.0947 
     70 S70        34.0755   -1.8074   -4.0502 S.3       12 UNK        -0.2240 
     71 C71        32.3342   -2.3060   -4.2371 C.3       12 UNK         0.0194 
     72 H72        26.0343   -6.3876   -5.9766 H         1 UNK         0.0906 
     73 H73        27.3320   -7.3644   -5.2864 H         1 UNK         0.0906 
     74 H74        25.6484   -7.8299   -5.0340 H         1 UNK         0.0906 
     75 H75        28.2464   -6.3551   -3.4988 H         1 UNK         0.3140 
     76 H76        26.6915   -5.3855   -1.2959 H         1 UNK         0.1085 
     77 H77        29.6787   -5.0659   -1.8645 H         1 UNK         0.0836 
     78 H78        28.9556   -6.4022   -1.0200 H         1 UNK         0.0836 
     79 H79        31.3233   -4.4072    0.1907 H         1 UNK         0.0731 
     80 H80        30.7411   -3.1574    1.2538 H         1 UNK         0.0731 
     81 H81        31.8081   -3.9008   -2.1047 H         1 UNK         0.1312 
     82 H82        31.1685    0.0596   -3.5836 H         1 UNK         0.1406 
     83 H83        29.5851   -1.0859    0.2427 H         1 UNK         0.1631 
     84 H84        30.6159    1.7757   -1.5949 H         1 UNK         0.0717 
     85 H85        29.5095    1.1990   -0.3852 H         1 UNK         0.0717 
     86 H86        29.1615    3.3751   -3.7574 H         1 UNK         0.0934 
     87 H87        30.2051    2.0140   -3.9468 H         1 UNK         0.0934 
     88 H88        29.2359    2.2690   -6.0306 H         1 UNK         0.0739 
     89 H89        28.0558   -0.0303   -4.6718 H         1 UNK         0.3093 
     90 H90        27.6479   -1.7848   -7.7951 H         1 UNK         0.0818 
     91 H91        29.9818   -2.1917   -7.0234 H         1 UNK         0.0819 
     92 H92        29.4431   -2.2329   -5.3492 H         1 UNK         0.0819 
     93 H93        28.9135   -3.4736   -6.4810 H         1 UNK         0.0819 
     94 H94        26.9757   -2.4745   -5.0976 H         1 UNK         0.3041 
     95 H95        23.6668   -1.1565   -5.1001 H         1 UNK         0.0784 
     96 H96        23.3467   -3.1254   -6.5752 H         1 UNK         0.0793 
     97 H97        24.5182   -4.0493   -5.6470 H         1 UNK         0.0793 
     98 H98        22.9960   -3.5530   -4.9079 H         1 UNK         0.0793 
     99 H99        24.9373   -3.0138   -3.3694 H         1 UNK         0.3024 
    100 H100       27.1469   -0.9460   -1.6751 H         1 UNK         0.1171 
    101 H101       25.8382   -1.1676    0.4170 H         1 UNK         0.0786 
    102 H102       25.1171    0.0594   -0.6094 H         1 UNK         0.0786 
    103 H103       24.3746   -1.5314   -0.5012 H         1 UNK         0.0786 
    104 H104       26.1113   -3.3526   -0.7435 H         1 UNK         0.2977 
    105 H105       26.0093    1.4034   -4.6850 H         1 UNK         0.3127 
    106 H106       24.8209    3.9310   -5.0494 H         1 UNK         0.0770 
    107 H107       23.5193    1.1639   -5.1591 H         1 UNK         0.0814 
    108 H108       22.6695    2.6844   -4.9285 H         1 UNK         0.0814 
    109 H109       23.7935    2.1197   -3.7028 H         1 UNK         0.0814 
    110 H110       25.1402    1.2254   -7.3993 H         1 UNK         0.2983 
    111 H111       23.7365    2.6398   -9.5223 H         1 UNK         0.0947 
    112 H112       24.4642    0.6990  -10.8863 H         1 UNK         0.0806 
    113 H113       23.7963    0.1400   -9.3620 H         1 UNK         0.0806 
    114 H114       25.5426    0.1619   -9.6060 H         1 UNK         0.0806 
    115 H115       26.7740    3.1262   -8.1728 H         1 UNK         0.3000 
    116 H116       28.6863    4.0749   -8.6895 H         1 UNK         0.0850 
    117 H117       28.7601    5.8947  -10.3410 H         1 UNK         0.0810 
    118 H118       27.2331    5.9627   -9.4783 H         1 UNK         0.0810 
    119 H119       27.2948    5.3191  -11.1193 H         1 UNK         0.0810 
    120 H120       28.2343    1.3988   -9.6251 H         1 UNK         0.3040 
    121 H121       29.7746    1.0790  -12.1191 H         1 UNK         0.0766 
    122 H122       27.8788   -0.4687  -11.6343 H         1 UNK         0.0812 
    123 H123       28.6539   -0.9781  -10.1342 H         1 UNK         0.0812 
    124 H124       29.4019   -1.3440  -11.6819 H         1 UNK         0.0812 
    125 H125       30.1264    0.8110   -8.6335 H         1 UNK         0.3205 
    126 H126       31.7963    0.8097   -7.2047 H         1 UNK         0.0754 
    127 H127       34.0845    1.4813   -7.7721 H         1 UNK         0.0769 
    128 H128       32.9875    2.4713   -8.7145 H         1 UNK         0.0769 
    129 H129       33.8377    1.1266   -9.4728 H         1 UNK         0.0769 
    130 H130       33.9802   -0.4275   -6.6624 H         1 UNK         0.2981 
    131 H131       33.2347   -3.1909   -6.6932 H         1 UNK         0.0541 
    132 H132       34.3403   -5.0386   -7.5791 H         1 UNK         0.3459 
    133 H133       35.4576   -4.8551   -8.9050 H         1 UNK         0.3459 
    134 H134       35.2203   -3.5212   -5.2611 H         1 UNK         0.0612 
    135 H135       35.8345   -1.9422   -5.6643 H         1 UNK         0.0612 
    136 H136       32.2791   -3.3772   -4.4367 H         1 UNK         0.0624 
    137 H137       31.8909   -1.8012   -5.0951 H         1 UNK         0.0624 
@<TRIPOS>BOND
     1    1    2 1    
     2    1   72 1    
     3    1   73 1    
     4    1   74 1    
     5    2    3 2    
     6    2    4 am   BACKBONE|DICT|INTERRES
     7    4    5 1    
     8    4   75 1    
     9    5    6 1    
    10    5   35 1    
    11    5   76 1    
    12    6    7 1    
    13    6   77 1    
    14    6   78 1    
    15    7    8 1    
    16    8    9 1    
    17    8   79 1    
    18    8   80 1    
    19    9   10 ar   
    20    9   14 ar   
    21   10   11 ar   
    22   10   81 1    
    23   11   12 ar   
    24   11   71 1    
    25   12   13 ar   
    26   12   82 1    
    27   13   14 ar   
    28   13   15 1    
    29   14   83 1    
    30   15   16 1    
    31   15   84 1    
    32   15   85 1    
    33   16   17 1    
    34   17   18 1    
    35   17   86 1    
    36   17   87 1    
    37   18   19 1    
    38   18   37 1    
    39   18   88 1    
    40   19   20 am   BACKBONE|DICT|INTERRES
    41   19   89 1    
    42   20   21 2    
    43   20   22 1    
    44   22   23 1    
    45   22   24 1    
    46   22   90 1    
    47   23   91 1    
    48   23   92 1    
    49   23   93 1    
    50   24   25 am   BACKBONE|DICT|INTERRES
    51   24   94 1    
    52   25   26 2    
    53   25   27 1    
    54   27   28 1    
    55   27   29 1    
    56   27   95 1    
    57   28   96 1    
    58   28   97 1    
    59   28   98 1    
    60   29   30 am   BACKBONE|DICT|INTERRES
    61   29   99 1    
    62   30   31 2    
    63   30   32 1    
    64   32   33 1    
    65   32   34 1    
    66   32  100 1    
    67   33  101 1    
    68   33  102 1    
    69   33  103 1    
    70   34   35 am   BACKBONE|DICT|INTERRES
    71   34  104 1    
    72   35   36 2    
    73   37   38 2    
    74   37   39 am   BACKBONE|DICT|INTERRES
    75   39   40 1    
    76   39  105 1    
    77   40   41 1    
    78   40   42 1    
    79   40  106 1    
    80   41  107 1    
    81   41  108 1    
    82   41  109 1    
    83   42   43 2    
    84   42   44 am   BACKBONE|DICT|INTERRES
    85   44   45 1    
    86   44  110 1    
    87   45   46 1    
    88   45   47 1    
    89   45  111 1    
    90   46  112 1    
    91   46  113 1    
    92   46  114 1    
    93   47   48 2    
    94   47   49 am   BACKBONE|DICT|INTERRES
    95   49   50 1    
    96   49  115 1    
    97   50   51 1    
    98   50   52 1    
    99   50  116 1    
   100   51  117 1    
   101   51  118 1    
   102   51  119 1    
   103   52   53 2    
   104   52   54 am   BACKBONE|DICT|INTERRES
   105   54   55 1    
   106   54  120 1    
   107   55   56 1    
   108   55   57 1    
   109   55  121 1    
   110   56  122 1    
   111   56  123 1    
   112   56  124 1    
   113   57   58 2    
   114   57   59 am   BACKBONE|DICT|INTERRES
   115   59   60 1    
   116   59  125 1    
   117   60   61 1    
   118   60   62 1    
   119   60  126 1    
   120   61  127 1    
   121   61  128 1    
   122   61  129 1    
   123   62   63 2    
   124   62   64 am   BACKBONE|DICT|INTERRES
   125   64   65 1    
   126   64  130 1    
   127   65   66 1    
   128   65   69 1    
   129   65  131 1    
   130   66   67 am   BACKBONE|DICT|INTERRES
   131   66   68 2    
   132   67  132 1    
   133   67  133 1    
   134   69   70 1    
   135   69  134 1    
   136   69  135 1    
   137   70   71 1    
   138   71  136 1    
   139   71  137 1    
@<TRIPOS>SUBSTRUCTURE
     1 UNK         1 GROUP             0       ****    0 ROOT    
