@<TRIPOS>MOLECULE
3R137
137   139    1
SMALL
USER_CHARGES


@<TRIPOS>ATOM
      1 CA         28.4273    1.1413    3.1591 C.3       0 UNK        -0.2020 
      2 C          28.3206    0.3701    1.8520 C.2       0 UNK         0.4855 
      3 O          29.2626    0.3743    1.0592 O.2       0 UNK        -0.5197 
      4 N          27.1822   -0.2897    1.6196 N.am      1 UNK        -0.4892 
      5 CA         26.8700   -1.0505    0.4118 C.3       1 UNK         0.0835 
      6 C6         27.5971   -2.4232    0.3665 C.3       12 UNK        -0.0855 
      7 S7         27.8986   -2.9630   -1.3488 S.3       12 UNK        -0.2931 
      8 C8         29.6995   -2.7084   -1.4865 C.3       12 UNK         0.0378 
      9 C9         30.1998   -2.8044   -2.9243 C.ar      12 UNK        -0.0802 
     10 C10        31.0837   -1.8404   -3.4206 C.ar      12 UNK        -0.0944 
     11 C11        31.5521   -1.9154   -4.7357 C.ar      12 UNK        -0.0787 
     12 C12        31.1262   -2.9592   -5.5622 C.ar      12 UNK        -0.0862 
     13 C13        30.2510   -3.9335   -5.0767 C.ar      12 UNK        -0.0733 
     14 C14        29.7988   -3.8554   -3.7567 C.ar      12 UNK        -0.0832 
     15 C15        29.8045   -5.0857   -5.9617 C.3       12 UNK         0.0240 
     16 S16        28.1620   -4.7815   -6.6824 S.3       12 UNK        -0.2522 
     17 C17        28.5626   -3.7922   -8.1679 C.3       12 UNK        -0.0967 
     18 CA         27.7850   -2.4558   -8.2818 C.3       5 UNK         0.0660 
     19 N          26.3555   -2.6300   -8.0117 N.am      5 UNK        -0.4015 
     20 C          25.4013   -1.7124   -8.2028 C.2       4 UNK         0.4946 
     21 O          25.6165   -0.5947   -8.6716 O.2       4 UNK        -0.5353 
     22 CA         23.9743   -2.0650   -7.7419 C.3       4 UNK         0.0277 
     23 CB         23.7711   -3.5574   -7.3911 C.3       4 UNK        -0.1981 
     24 N          23.5520   -1.2149   -6.6213 N.am      4 UNK        -0.4209 
     25 C          24.1802   -1.0632   -5.4449 C.2       3 UNK         0.4942 
     26 O          25.2368   -1.6305   -5.1572 O.2       3 UNK        -0.5208 
     27 CA         23.5663   -0.0752   -4.4312 C.3       3 UNK         0.0250 
     28 CB         22.1185    0.3607   -4.7579 C.3       3 UNK        -0.1990 
     29 N          23.6665   -0.5713   -3.0536 N.am      3 UNK        -0.4232 
     30 C          23.1156   -1.6880   -2.5525 C.2       2 UNK         0.4993 
     31 O          22.3867   -2.4473   -3.1937 O.2       2 UNK        -0.5286 
     32 CA         23.4484   -2.0030   -1.0850 C.3       2 UNK         0.0209 
     33 CB         23.1165   -3.4550   -0.6859 C.3       2 UNK        -0.1931 
     34 N          24.8613   -1.7321   -0.8114 N.am      2 UNK        -0.4546 
     35 C          25.3388   -1.1914    0.3142 C.2       1 UNK         0.5154 
     36 O          24.6264   -0.8235    1.2544 O.2       1 UNK        -0.5181 
     37 C          28.4436   -1.3140   -7.4748 C.2       5 UNK         0.5014 
     38 O          29.3989   -0.7132   -7.9741 O.2       5 UNK        -0.5248 
     39 N          27.9127   -0.9949   -6.2837 N.am      6 UNK        -0.4434 
     40 CA         28.3516    0.1486   -5.4807 C.3       6 UNK         0.0363 
     41 CB         27.8992   -0.0288   -4.0227 C.3       6 UNK        -0.1936 
     42 C          27.8295    1.4812   -6.0420 C.2       6 UNK         0.5081 
     43 O          28.5488    2.4775   -5.9897 O.2       6 UNK        -0.5248 
     44 N          26.6025    1.4774   -6.5852 N.am      7 UNK        -0.4718 
     45 CA         25.9722    2.6433   -7.2147 C.3       7 UNK         0.0273 
     46 CB         24.4494    2.4470   -7.2859 C.3       7 UNK        -0.1935 
     47 C          26.5538    2.9260   -8.6076 C.2       7 UNK         0.5018 
     48 O          26.7668    4.0883   -8.9528 O.2       7 UNK        -0.5186 
     49 N          26.8405    1.8555   -9.3618 N.am      8 UNK        -0.4240 
     50 CA         27.5563    1.8927  -10.6401 C.3       8 UNK         0.0235 
     51 CB         27.4017    0.5315  -11.3376 C.3       8 UNK        -0.2000 
     52 C          29.0486    2.2497  -10.4957 C.2       8 UNK         0.4941 
     53 O          29.6728    2.6050  -11.4960 O.2       8 UNK        -0.5273 
     54 N          29.5839    2.1419   -9.2691 N.am      9 UNK        -0.4262 
     55 CA         30.9695    2.3897   -8.8641 C.3       9 UNK         0.0264 
     56 CB         31.3370    3.8798   -9.0262 C.3       9 UNK        -0.1955 
     57 C          31.9562    1.4399   -9.5642 C.2       9 UNK         0.5031 
     58 O          32.9834    1.8828  -10.0837 O.2       9 UNK        -0.5390 
     59 N          31.6399    0.1358   -9.5386 N.am      10 UNK        -0.4204 
     60 CA         32.4375   -0.9411  -10.1438 C.3       10 UNK         0.0237 
     61 CB         31.6727   -2.2664  -10.0092 C.3       10 UNK        -0.1985 
     62 C          33.8567   -1.0817   -9.5576 C.2       10 UNK         0.4970 
     63 O          34.7362   -1.6319  -10.2209 O.2       10 UNK        -0.4914 
     64 N          34.0477   -0.5675   -8.3381 N.am      11 UNK        -0.4285 
     65 CA         35.3345   -0.4321   -7.6461 C.3       11 UNK         0.1007 
     66 C          36.2756    0.6499   -8.2550 C.2       11 UNK         0.5703 
     67 N          35.8114    1.5307   -9.1359 N.am      11 UNK        -0.7361 
     68 O          37.4582    0.6853   -7.9231 O.2       11 UNK        -0.4986 
     69 C69        35.1231   -0.1874   -6.1280 C.3       12 UNK        -0.0947 
     70 S70        34.2165   -1.5452   -5.3155 S.3       12 UNK        -0.2240 
     71 C71        32.5241   -0.8765   -5.2676 C.3       12 UNK         0.0194 
     72 H72        27.5242    1.0487    3.7621 H         1 UNK         0.0906 
     73 H73        29.2663    0.7693    3.7464 H         1 UNK         0.0906 
     74 H74        28.5941    2.1992    2.9583 H         1 UNK         0.0906 
     75 H75        26.4013   -0.2301    2.2642 H         1 UNK         0.3140 
     76 H76        27.1869   -0.4404   -0.4379 H         1 UNK         0.1085 
     77 H77        28.5569   -2.3690    0.8824 H         1 UNK         0.0836 
     78 H78        27.0331   -3.1951    0.8943 H         1 UNK         0.0836 
     79 H79        30.2169   -3.4507   -0.8775 H         1 UNK         0.0731 
     80 H80        29.9448   -1.7307   -1.0675 H         1 UNK         0.0731 
     81 H81        31.4113   -1.0313   -2.7821 H         1 UNK         0.1312 
     82 H82        31.4898   -3.0176   -6.5782 H         1 UNK         0.1406 
     83 H83        29.1221   -4.6105   -3.3801 H         1 UNK         0.1631 
     84 H84        29.7580   -5.9993   -5.3671 H         1 UNK         0.0717 
     85 H85        30.5328   -5.2795   -6.7507 H         1 UNK         0.0717 
     86 H86        29.6377   -3.6242   -8.2297 H         1 UNK         0.0934 
     87 H87        28.3247   -4.4130   -9.0332 H         1 UNK         0.0934 
     88 H88        27.8553   -2.1440   -9.3253 H         1 UNK         0.0739 
     89 H89        26.1029   -3.5023   -7.5694 H         1 UNK         0.3093 
     90 H90        23.3188   -1.8289   -8.5815 H         1 UNK         0.0818 
     91 H91        22.7256   -3.7608   -7.1587 H         1 UNK         0.0819 
     92 H92        24.0398   -4.2026   -8.2288 H         1 UNK         0.0819 
     93 H93        24.3598   -3.8666   -6.5263 H         1 UNK         0.0819 
     94 H94        22.7059   -0.6844   -6.7737 H         1 UNK         0.3041 
     95 H95        24.1946    0.8154   -4.4697 H         1 UNK         0.0784 
     96 H96        22.0625    0.8928   -5.7081 H         1 UNK         0.0793 
     97 H97        21.4366   -0.4890   -4.8115 H         1 UNK         0.0793 
     98 H98        21.7350    1.0403   -3.9967 H         1 UNK         0.0793 
     99 H99        24.2664   -0.0369   -2.4415 H         1 UNK         0.3024 
    100 H100       22.8222   -1.3355   -0.4880 H         1 UNK         0.1171 
    101 H101       23.3303   -3.6353    0.3677 H         1 UNK         0.0786 
    102 H102       22.0594   -3.6746   -0.8413 H         1 UNK         0.0786 
    103 H103       23.6915   -4.1727   -1.2723 H         1 UNK         0.0786 
    104 H104       25.5183   -2.0291   -1.5235 H         1 UNK         0.2977 
    105 H105       27.1108   -1.5140   -5.9368 H         1 UNK         0.3127 
    106 H106       29.4434    0.1771   -5.4936 H         1 UNK         0.0770 
    107 H107       26.8204    0.0768   -3.9113 H         1 UNK         0.0814 
    108 H108       28.3667    0.7167   -3.3786 H         1 UNK         0.0814 
    109 H109       28.1762   -1.0093   -3.6403 H         1 UNK         0.0814 
    110 H110       26.1147    0.5961   -6.6628 H         1 UNK         0.2983 
    111 H111       26.1698    3.5206   -6.5941 H         1 UNK         0.0947 
    112 H112       23.9725    3.2886   -7.7905 H         1 UNK         0.0806 
    113 H113       24.0130    2.3862   -6.2902 H         1 UNK         0.0806 
    114 H114       24.1777    1.5448   -7.8343 H         1 UNK         0.0806 
    115 H115       26.5378    0.9393   -9.0331 H         1 UNK         0.3000 
    116 H116       27.0934    2.6582  -11.2665 H         1 UNK         0.0850 
    117 H117       27.8596    0.5453  -12.3275 H         1 UNK         0.0810 
    118 H118       26.3520    0.2675  -11.4686 H         1 UNK         0.0810 
    119 H119       27.8800   -0.2657  -10.7688 H         1 UNK         0.0810 
    120 H120       28.9759    1.8100   -8.5331 H         1 UNK         0.3040 
    121 H121       31.0204    2.1538   -7.7998 H         1 UNK         0.0766 
    122 H122       31.3522    4.1836  -10.0733 H         1 UNK         0.0812 
    123 H123       32.3266    4.0840   -8.6155 H         1 UNK         0.0812 
    124 H124       30.6292    4.5209   -8.5006 H         1 UNK         0.0812 
    125 H125       30.7859   -0.1445   -9.0557 H         1 UNK         0.3205 
    126 H126       32.5457   -0.7103  -11.2055 H         1 UNK         0.0754 
    127 H127       32.1969   -3.0749  -10.5206 H         1 UNK         0.0769 
    128 H128       30.6752   -2.1990  -10.4444 H         1 UNK         0.0769 
    129 H129       31.5676   -2.5555   -8.9640 H         1 UNK         0.0769 
    130 H130       33.2602   -0.1336   -7.8856 H         1 UNK         0.2981 
    131 H131       35.8614   -1.3815   -7.7585 H         1 UNK         0.0541 
    132 H132       34.8394    1.5275   -9.4274 H         1 UNK         0.3459 
    133 H133       36.4420    2.2173   -9.5175 H         1 UNK         0.3459 
    134 H134       36.0854   -0.0991   -5.6202 H         1 UNK         0.0612 
    135 H135       34.6025    0.7564   -5.9551 H         1 UNK         0.0612 
    136 H136       32.5073    0.0214   -4.6479 H         1 UNK         0.0624 
    137 H137       32.2095   -0.5716   -6.2658 H         1 UNK         0.0624 
@<TRIPOS>BOND
     1    1    2 1    
     2    1   72 1    
     3    1   73 1    
     4    1   74 1    
     5    2    3 2    
     6    2    4 am   BACKBONE|DICT|INTERRES
     7    4    5 1    
     8    4   75 1    
     9    5    6 1    
    10    5   35 1    
    11    5   76 1    
    12    6    7 1    
    13    6   77 1    
    14    6   78 1    
    15    7    8 1    
    16    8    9 1    
    17    8   79 1    
    18    8   80 1    
    19    9   10 ar   
    20    9   14 ar   
    21   10   11 ar   
    22   10   81 1    
    23   11   12 ar   
    24   11   71 1    
    25   12   13 ar   
    26   12   82 1    
    27   13   14 ar   
    28   13   15 1    
    29   14   83 1    
    30   15   16 1    
    31   15   84 1    
    32   15   85 1    
    33   16   17 1    
    34   17   18 1    
    35   17   86 1    
    36   17   87 1    
    37   18   19 1    
    38   18   37 1    
    39   18   88 1    
    40   19   20 am   BACKBONE|DICT|INTERRES
    41   19   89 1    
    42   20   21 2    
    43   20   22 1    
    44   22   23 1    
    45   22   24 1    
    46   22   90 1    
    47   23   91 1    
    48   23   92 1    
    49   23   93 1    
    50   24   25 am   BACKBONE|DICT|INTERRES
    51   24   94 1    
    52   25   26 2    
    53   25   27 1    
    54   27   28 1    
    55   27   29 1    
    56   27   95 1    
    57   28   96 1    
    58   28   97 1    
    59   28   98 1    
    60   29   30 am   BACKBONE|DICT|INTERRES
    61   29   99 1    
    62   30   31 2    
    63   30   32 1    
    64   32   33 1    
    65   32   34 1    
    66   32  100 1    
    67   33  101 1    
    68   33  102 1    
    69   33  103 1    
    70   34   35 am   BACKBONE|DICT|INTERRES
    71   34  104 1    
    72   35   36 2    
    73   37   38 2    
    74   37   39 am   BACKBONE|DICT|INTERRES
    75   39   40 1    
    76   39  105 1    
    77   40   41 1    
    78   40   42 1    
    79   40  106 1    
    80   41  107 1    
    81   41  108 1    
    82   41  109 1    
    83   42   43 2    
    84   42   44 am   BACKBONE|DICT|INTERRES
    85   44   45 1    
    86   44  110 1    
    87   45   46 1    
    88   45   47 1    
    89   45  111 1    
    90   46  112 1    
    91   46  113 1    
    92   46  114 1    
    93   47   48 2    
    94   47   49 am   BACKBONE|DICT|INTERRES
    95   49   50 1    
    96   49  115 1    
    97   50   51 1    
    98   50   52 1    
    99   50  116 1    
   100   51  117 1    
   101   51  118 1    
   102   51  119 1    
   103   52   53 2    
   104   52   54 am   BACKBONE|DICT|INTERRES
   105   54   55 1    
   106   54  120 1    
   107   55   56 1    
   108   55   57 1    
   109   55  121 1    
   110   56  122 1    
   111   56  123 1    
   112   56  124 1    
   113   57   58 2    
   114   57   59 am   BACKBONE|DICT|INTERRES
   115   59   60 1    
   116   59  125 1    
   117   60   61 1    
   118   60   62 1    
   119   60  126 1    
   120   61  127 1    
   121   61  128 1    
   122   61  129 1    
   123   62   63 2    
   124   62   64 am   BACKBONE|DICT|INTERRES
   125   64   65 1    
   126   64  130 1    
   127   65   66 1    
   128   65   69 1    
   129   65  131 1    
   130   66   67 am   BACKBONE|DICT|INTERRES
   131   66   68 2    
   132   67  132 1    
   133   67  133 1    
   134   69   70 1    
   135   69  134 1    
   136   69  135 1    
   137   70   71 1    
   138   71  136 1    
   139   71  137 1    
@<TRIPOS>SUBSTRUCTURE
     1 UNK         1 GROUP             0       ****    0 ROOT    
