@<TRIPOS>MOLECULE
3R137
137   139    1
SMALL
USER_CHARGES


@<TRIPOS>ATOM
      1 CA         25.2117   -5.0899   -3.7977 C.3       0 UNK        -0.2020 
      2 C          25.4349   -3.8689   -2.9203 C.2       0 UNK         0.4855 
      3 O          24.4728   -3.2056   -2.5331 O.2       0 UNK        -0.5197 
      4 N          26.6970   -3.5653   -2.5926 N.am      1 UNK        -0.4892 
      5 CA         27.0702   -2.4633   -1.6980 C.3       1 UNK         0.0835 
      6 C6         28.5485   -2.5357   -1.2468 C.3       12 UNK        -0.0855 
      7 S7         28.8706   -4.0810   -0.3228 S.3       12 UNK        -0.2931 
      8 C8         30.6909   -4.2228   -0.3828 C.3       12 UNK         0.0378 
      9 C9         31.2663   -4.2356   -1.7960 C.ar      12 UNK        -0.0802 
     10 C10        32.4272   -3.5069   -2.0721 C.ar      12 UNK        -0.0944 
     11 C11        32.9465   -3.4563   -3.3686 C.ar      12 UNK        -0.0787 
     12 C12        32.3000   -4.1498   -4.3950 C.ar      12 UNK        -0.0862 
     13 C13        31.1336   -4.8766   -4.1347 C.ar      12 UNK        -0.0733 
     14 C14        30.6415   -4.9440   -2.8291 C.ar      12 UNK        -0.0832 
     15 C15        30.3569   -5.5165   -5.2790 C.3       12 UNK         0.0240 
     16 S16        28.7817   -4.6442   -5.6015 S.3       12 UNK        -0.2522 
     17 C17        29.3124   -2.8991   -5.5558 C.3       12 UNK        -0.0967 
     18 CA         28.5722   -1.9756   -6.5436 C.3       5 UNK         0.0660 
     19 N          27.1143   -2.0085   -6.3725 N.am      5 UNK        -0.4015 
     20 C          26.2307   -1.2832   -7.0720 C.2       4 UNK         0.4946 
     21 O          26.5424   -0.3695   -7.8352 O.2       4 UNK        -0.5353 
     22 CA         24.7519   -1.6337   -6.9044 C.3       4 UNK         0.0277 
     23 CB         24.4753   -3.1324   -7.1355 C.3       4 UNK        -0.1981 
     24 N          24.2511   -1.1995   -5.6003 N.am      4 UNK        -0.4209 
     25 C          22.9751   -0.8492   -5.3770 C.2       3 UNK         0.4942 
     26 O          22.1087   -0.8538   -6.2532 O.2       3 UNK        -0.5208 
     27 CA         22.5651   -0.4333   -3.9530 C.3       3 UNK         0.0250 
     28 CB         21.6313   -1.4847   -3.3287 C.3       3 UNK        -0.1990 
     29 N          23.7060   -0.2082   -3.0627 N.am      3 UNK        -0.4232 
     30 C          24.3510    0.9634   -2.9565 C.2       2 UNK         0.4993 
     31 O          24.0373    1.9686   -3.5929 O.2       2 UNK        -0.5286 
     32 CA         25.5356    1.0553   -1.9764 C.3       2 UNK         0.0209 
     33 CB         25.1438    1.8721   -0.7338 C.3       2 UNK        -0.1931 
     34 N          26.0644   -0.2411   -1.5445 N.am      2 UNK        -0.4546 
     35 C          26.7230   -1.1014   -2.3306 C.2       1 UNK         0.5154 
     36 O          27.0100   -0.8714   -3.5096 O.2       1 UNK        -0.5181 
     37 C          29.1943   -0.5706   -6.4566 C.2       5 UNK         0.5014 
     38 O          30.0796   -0.2624   -7.2547 O.2       5 UNK        -0.5248 
     39 N          28.7399    0.2445   -5.4993 N.am      6 UNK        -0.4434 
     40 CA         29.2122    1.6165   -5.3013 C.3       6 UNK         0.0363 
     41 CB         29.3449    1.8835   -3.7931 C.3       6 UNK        -0.1936 
     42 C          28.3182    2.6679   -5.9891 C.2       6 UNK         0.5081 
     43 O          28.6065    3.8582   -5.8631 O.2       6 UNK        -0.5248 
     44 N          27.2635    2.2374   -6.6964 N.am      7 UNK        -0.4718 
     45 CA         26.3258    3.1087   -7.4121 C.3       7 UNK         0.0273 
     46 CB         24.8854    2.6873   -7.0765 C.3       7 UNK        -0.1935 
     47 C          26.5477    3.0730   -8.9320 C.2       7 UNK         0.5018 
     48 O          26.4503    4.1181   -9.5756 O.2       7 UNK        -0.5186 
     49 N          26.8211    1.8786   -9.4751 N.am      8 UNK        -0.4240 
     50 CA         27.0179    1.6029  -10.9014 C.3       8 UNK         0.0235 
     51 CB         27.1724    0.0882  -11.1316 C.3       8 UNK        -0.2000 
     52 C          28.1383    2.4032  -11.6064 C.2       8 UNK         0.4941 
     53 O          27.8668    2.9408  -12.6791 O.2       8 UNK        -0.5273 
     54 N          29.3676    2.5171  -11.0804 N.am      9 UNK        -0.4262 
     55 CA         29.9467    1.8530   -9.9152 C.3       9 UNK         0.0264 
     56 CB         30.4190    2.9232   -8.9176 C.3       9 UNK        -0.1955 
     57 C          31.1355    0.9975  -10.3672 C.2       9 UNK         0.5031 
     58 O          31.8502    1.3774  -11.2981 O.2       9 UNK        -0.5390 
     59 N          31.3389   -0.1160   -9.6606 N.am      10 UNK        -0.4204 
     60 CA         32.4977   -1.0014   -9.7675 C.3       10 UNK         0.0237 
     61 CB         32.0172   -2.4625   -9.7673 C.3       10 UNK        -0.1985 
     62 C          33.4694   -0.7608   -8.6010 C.2       10 UNK         0.4970 
     63 O          34.6807   -0.8583   -8.7977 O.2       10 UNK        -0.4914 
     64 N          32.9257   -0.4377   -7.4187 N.am      11 UNK        -0.4285 
     65 CA         33.6767   -0.0881   -6.2042 C.3       11 UNK         0.1007 
     66 C          34.1724    1.3909   -6.1719 C.2       11 UNK         0.5703 
     67 N          33.8001    2.2393   -7.1240 N.am      11 UNK        -0.7361 
     68 O          34.9257    1.7756   -5.2816 O.2       11 UNK        -0.4986 
     69 C69        32.8627   -0.4791   -4.9391 C.3       12 UNK        -0.0947 
     70 S70        33.9090   -0.8472   -3.4898 S.3       12 UNK        -0.2240 
     71 C71        34.1971   -2.6388   -3.6602 C.3       12 UNK         0.0194 
     72 H72        24.3202   -4.9601   -4.4105 H         1 UNK         0.0906 
     73 H73        26.0574   -5.2723   -4.4593 H         1 UNK         0.0906 
     74 H74        25.0656   -5.9727   -3.1760 H         1 UNK         0.0906 
     75 H75        27.4598   -4.1306   -2.9358 H         1 UNK         0.3140 
     76 H76        26.4554   -2.5735   -0.8012 H         1 UNK         0.1085 
     77 H77        29.2140   -2.4641   -2.1081 H         1 UNK         0.0836 
     78 H78        28.7973   -1.6954   -0.5956 H         1 UNK         0.0836 
     79 H79        31.1149   -3.3999    0.1950 H         1 UNK         0.0731 
     80 H80        30.9886   -5.1417    0.1235 H         1 UNK         0.0731 
     81 H81        32.9206   -2.9568   -1.2822 H         1 UNK         0.1312 
     82 H82        32.6837   -4.0919   -5.4046 H         1 UNK         0.1406 
     83 H83        29.7383   -5.5044   -2.6308 H         1 UNK         0.1631 
     84 H84        30.1474   -6.5605   -5.0426 H         1 UNK         0.0717 
     85 H85        30.9512   -5.5206   -6.1941 H         1 UNK         0.0717 
     86 H86        29.2039   -2.5407   -4.5303 H         1 UNK         0.0934 
     87 H87        30.3782   -2.8611   -5.7832 H         1 UNK         0.0934 
     88 H88        28.7671   -2.3413   -7.5539 H         1 UNK         0.0739 
     89 H89        26.7725   -2.7197   -5.7449 H         1 UNK         0.3093 
     90 H90        24.2243   -1.0784   -7.6837 H         1 UNK         0.0818 
     91 H91        23.4052   -3.3407   -7.1369 H         1 UNK         0.0819 
     92 H92        24.8659   -3.4561   -8.1012 H         1 UNK         0.0819 
     93 H93        24.9333   -3.7591   -6.3724 H         1 UNK         0.0819 
     94 H94        24.9226   -1.1271   -4.8465 H         1 UNK         0.3041 
     95 H95        21.9965    0.4950   -4.0433 H         1 UNK         0.0784 
     96 H96        20.7212   -1.5956   -3.9198 H         1 UNK         0.0793 
     97 H97        22.1007   -2.4668   -3.2751 H         1 UNK         0.0793 
     98 H98        21.3283   -1.2004   -2.3209 H         1 UNK         0.0793 
     99 H99        24.0279   -1.0088   -2.5310 H         1 UNK         0.3024 
    100 H100       26.3264    1.5929   -2.4988 H         1 UNK         0.1171 
    101 H101       24.7765    2.8604   -1.0147 H         1 UNK         0.0786 
    102 H102       25.9971    2.0236   -0.0724 H         1 UNK         0.0786 
    103 H103       24.3551    1.3829   -0.1607 H         1 UNK         0.0786 
    104 H104       25.8599   -0.5096   -0.5922 H         1 UNK         0.2977 
    105 H105       28.0321   -0.1028   -4.8526 H         1 UNK         0.3127 
    106 H106       30.2086    1.7287   -5.7334 H         1 UNK         0.0770 
    107 H107       28.3845    1.8204   -3.2872 H         1 UNK         0.0814 
    108 H108       29.7497    2.8784   -3.6034 H         1 UNK         0.0814 
    109 H109       30.0179    1.1666   -3.3224 H         1 UNK         0.0814 
    110 H110       27.1218    1.2390   -6.8044 H         1 UNK         0.2983 
    111 H111       26.4509    4.1449   -7.0900 H         1 UNK         0.0947 
    112 H112       24.1622    3.3076   -7.6076 H         1 UNK         0.0806 
    113 H113       24.6833    2.7987   -6.0121 H         1 UNK         0.0806 
    114 H114       24.6871    1.6498   -7.3474 H         1 UNK         0.0806 
    115 H115       26.8178    1.0643   -8.8628 H         1 UNK         0.3000 
    116 H116       26.0861    1.8998  -11.3875 H         1 UNK         0.0850 
    117 H117       27.3102   -0.1342  -12.1906 H         1 UNK         0.0810 
    118 H118       26.2832   -0.4506  -10.8033 H         1 UNK         0.0810 
    119 H119       28.0247   -0.3306  -10.5977 H         1 UNK         0.0810 
    120 H120       30.0547    3.0096  -11.6340 H         1 UNK         0.3040 
    121 H121       29.2331    1.2025   -9.4157 H         1 UNK         0.0766 
    122 H122       30.8222    2.4659   -8.0139 H         1 UNK         0.0812 
    123 H123       29.5975    3.5719   -8.6143 H         1 UNK         0.0812 
    124 H124       31.2000    3.5563   -9.3409 H         1 UNK         0.0812 
    125 H125       30.7222   -0.2834   -8.8650 H         1 UNK         0.3205 
    126 H126       33.0337   -0.8124  -10.7002 H         1 UNK         0.0754 
    127 H127       32.8597   -3.1507   -9.8486 H         1 UNK         0.0769 
    128 H128       31.3557   -2.6596  -10.6111 H         1 UNK         0.0769 
    129 H129       31.4763   -2.7130   -8.8534 H         1 UNK         0.0769 
    130 H130       31.9155   -0.3673   -7.3418 H         1 UNK         0.2981 
    131 H131       34.5815   -0.6987   -6.2105 H         1 UNK         0.0541 
    132 H132       33.2146    1.9331   -7.8819 H         1 UNK         0.3459 
    133 H133       34.1375    3.1884   -7.0942 H         1 UNK         0.3459 
    134 H134       32.2499   -1.3585   -5.1372 H         1 UNK         0.0612 
    135 H135       32.1563    0.3087   -4.6721 H         1 UNK         0.0612 
    136 H136       34.9836   -2.9339   -2.9644 H         1 UNK         0.0624 
    137 H137       34.5790   -2.8477   -4.6608 H         1 UNK         0.0624 
@<TRIPOS>BOND
     1    1    2 1    
     2    1   72 1    
     3    1   73 1    
     4    1   74 1    
     5    2    3 2    
     6    2    4 am   BACKBONE|DICT|INTERRES
     7    4    5 1    
     8    4   75 1    
     9    5    6 1    
    10    5   35 1    
    11    5   76 1    
    12    6    7 1    
    13    6   77 1    
    14    6   78 1    
    15    7    8 1    
    16    8    9 1    
    17    8   79 1    
    18    8   80 1    
    19    9   10 ar   
    20    9   14 ar   
    21   10   11 ar   
    22   10   81 1    
    23   11   12 ar   
    24   11   71 1    
    25   12   13 ar   
    26   12   82 1    
    27   13   14 ar   
    28   13   15 1    
    29   14   83 1    
    30   15   16 1    
    31   15   84 1    
    32   15   85 1    
    33   16   17 1    
    34   17   18 1    
    35   17   86 1    
    36   17   87 1    
    37   18   19 1    
    38   18   37 1    
    39   18   88 1    
    40   19   20 am   BACKBONE|DICT|INTERRES
    41   19   89 1    
    42   20   21 2    
    43   20   22 1    
    44   22   23 1    
    45   22   24 1    
    46   22   90 1    
    47   23   91 1    
    48   23   92 1    
    49   23   93 1    
    50   24   25 am   BACKBONE|DICT|INTERRES
    51   24   94 1    
    52   25   26 2    
    53   25   27 1    
    54   27   28 1    
    55   27   29 1    
    56   27   95 1    
    57   28   96 1    
    58   28   97 1    
    59   28   98 1    
    60   29   30 am   BACKBONE|DICT|INTERRES
    61   29   99 1    
    62   30   31 2    
    63   30   32 1    
    64   32   33 1    
    65   32   34 1    
    66   32  100 1    
    67   33  101 1    
    68   33  102 1    
    69   33  103 1    
    70   34   35 am   BACKBONE|DICT|INTERRES
    71   34  104 1    
    72   35   36 2    
    73   37   38 2    
    74   37   39 am   BACKBONE|DICT|INTERRES
    75   39   40 1    
    76   39  105 1    
    77   40   41 1    
    78   40   42 1    
    79   40  106 1    
    80   41  107 1    
    81   41  108 1    
    82   41  109 1    
    83   42   43 2    
    84   42   44 am   BACKBONE|DICT|INTERRES
    85   44   45 1    
    86   44  110 1    
    87   45   46 1    
    88   45   47 1    
    89   45  111 1    
    90   46  112 1    
    91   46  113 1    
    92   46  114 1    
    93   47   48 2    
    94   47   49 am   BACKBONE|DICT|INTERRES
    95   49   50 1    
    96   49  115 1    
    97   50   51 1    
    98   50   52 1    
    99   50  116 1    
   100   51  117 1    
   101   51  118 1    
   102   51  119 1    
   103   52   53 2    
   104   52   54 am   BACKBONE|DICT|INTERRES
   105   54   55 1    
   106   54  120 1    
   107   55   56 1    
   108   55   57 1    
   109   55  121 1    
   110   56  122 1    
   111   56  123 1    
   112   56  124 1    
   113   57   58 2    
   114   57   59 am   BACKBONE|DICT|INTERRES
   115   59   60 1    
   116   59  125 1    
   117   60   61 1    
   118   60   62 1    
   119   60  126 1    
   120   61  127 1    
   121   61  128 1    
   122   61  129 1    
   123   62   63 2    
   124   62   64 am   BACKBONE|DICT|INTERRES
   125   64   65 1    
   126   64  130 1    
   127   65   66 1    
   128   65   69 1    
   129   65  131 1    
   130   66   67 am   BACKBONE|DICT|INTERRES
   131   66   68 2    
   132   67  132 1    
   133   67  133 1    
   134   69   70 1    
   135   69  134 1    
   136   69  135 1    
   137   70   71 1    
   138   71  136 1    
   139   71  137 1    
@<TRIPOS>SUBSTRUCTURE
     1 UNK         1 GROUP             0       ****    0 ROOT    
