@<TRIPOS>MOLECULE
3R137
137   139    1
SMALL
USER_CHARGES


@<TRIPOS>ATOM
      1 CA         28.0784   -5.5516   -8.1171 C.3       0 UNK        -0.2020 
      2 C          27.5620   -5.9228   -6.7353 C.2       0 UNK         0.4855 
      3 O          26.8286   -6.9015   -6.5962 O.2       0 UNK        -0.5197 
      4 N          27.9433   -5.1487   -5.7114 N.am      1 UNK        -0.4892 
      5 CA         27.5853   -5.3696   -4.3023 C.3       1 UNK         0.0835 
      6 C6         28.4918   -4.5443   -3.3544 C.3       12 UNK        -0.0855 
      7 S7         30.2514   -5.0049   -3.5067 S.3       12 UNK        -0.2931 
      8 C8         30.9242   -4.4030   -1.9242 C.3       12 UNK         0.0378 
      9 C9         31.0725   -2.8888   -1.9228 C.ar      12 UNK        -0.0802 
     10 C10        32.2368   -2.2998   -2.4242 C.ar      12 UNK        -0.0944 
     11 C11        32.3704   -0.9088   -2.4591 C.ar      12 UNK        -0.0787 
     12 C12        31.3358   -0.1049   -1.9716 C.ar      12 UNK        -0.0862 
     13 C13        30.1652   -0.6825   -1.4702 C.ar      12 UNK        -0.0733 
     14 C14        30.0432   -2.0757   -1.4390 C.ar      12 UNK        -0.0832 
     15 C15        29.0096    0.1978   -1.0106 C.3       12 UNK         0.0240 
     16 S16        28.2715    1.1460   -2.3844 S.3       12 UNK        -0.2522 
     17 C17        28.0131   -0.1656   -3.6299 C.3       12 UNK        -0.0967 
     18 CA         27.3105    0.3026   -4.9236 C.3       5 UNK         0.0660 
     19 N          25.9501    0.8020   -4.6921 N.am      5 UNK        -0.4015 
     20 C          25.0699    1.0961   -5.6596 C.2       4 UNK         0.4946 
     21 O          25.3467    1.0403   -6.8607 O.2       4 UNK        -0.5353 
     22 CA         23.6516    1.4955   -5.2137 C.3       4 UNK         0.0277 
     23 CB         22.7204    1.7788   -6.4079 C.3       4 UNK        -0.1981 
     24 N          23.0635    0.4380   -4.3908 N.am      4 UNK        -0.4209 
     25 C          23.2055    0.3229   -3.0632 C.2       3 UNK         0.4942 
     26 O          23.7785    1.1583   -2.3634 O.2       3 UNK        -0.5208 
     27 CA         22.6759   -0.9735   -2.4210 C.3       3 UNK         0.0250 
     28 CB         21.1867   -0.8343   -2.0661 C.3       3 UNK        -0.1990 
     29 N          22.8746   -2.1592   -3.2657 N.am      3 UNK        -0.4232 
     30 C          24.0737   -2.6152   -3.6570 C.2       2 UNK         0.4993 
     31 O          25.1406   -2.1073   -3.3062 O.2       2 UNK        -0.5286 
     32 CA         24.0719   -3.7972   -4.6430 C.3       2 UNK         0.0209 
     33 CB         23.4883   -3.3664   -6.0003 C.3       2 UNK        -0.1931 
     34 N          25.4286   -4.3069   -4.8576 N.am      2 UNK        -0.4546 
     35 C          26.0972   -5.0863   -3.9964 C.2       1 UNK         0.5154 
     36 O          25.5880   -5.5708   -2.9838 O.2       1 UNK        -0.5181 
     37 C          28.1925    1.2601   -5.7503 C.2       5 UNK         0.5014 
     38 O          29.0162    0.7869   -6.5324 O.2       5 UNK        -0.5248 
     39 N          27.9585    2.5744   -5.6291 N.am      6 UNK        -0.4434 
     40 CA         28.6026    3.6215   -6.4275 C.3       6 UNK         0.0363 
     41 CB         28.1858    4.9965   -5.8816 C.3       6 UNK        -0.1936 
     42 C          28.3102    3.5316   -7.9393 C.2       6 UNK         0.5081 
     43 O          29.0926    4.0632   -8.7267 O.2       6 UNK        -0.5248 
     44 N          27.2121    2.8646   -8.3192 N.am      7 UNK        -0.4718 
     45 CA         26.8699    2.5539   -9.7055 C.3       7 UNK         0.0273 
     46 CB         25.3763    2.8391   -9.9385 C.3       7 UNK        -0.1935 
     47 C          27.1988    1.0903  -10.0348 C.2       7 UNK         0.5018 
     48 O          27.7748    0.8278  -11.0907 O.2       7 UNK        -0.5186 
     49 N          26.8082    0.1654   -9.1449 N.am      8 UNK        -0.4240 
     50 CA         26.9001   -1.2800   -9.3637 C.3       8 UNK         0.0235 
     51 CB         25.9914   -2.0078   -8.3610 C.3       8 UNK        -0.2000 
     52 C          28.3308   -1.8385   -9.3056 C.2       8 UNK         0.4941 
     53 O          28.6741   -2.6795  -10.1370 O.2       8 UNK        -0.5273 
     54 N          29.1245   -1.3896   -8.3250 N.am      9 UNK        -0.4262 
     55 CA         30.5119   -1.8144   -8.1180 C.3       9 UNK         0.0264 
     56 CB         30.7296   -2.1688   -6.6356 C.3       9 UNK        -0.1955 
     57 C          31.4987   -0.7253   -8.5615 C.2       9 UNK         0.5031 
     58 O          32.5421   -1.0566   -9.1270 O.2       9 UNK        -0.5390 
     59 N          31.1633    0.5456   -8.2903 N.am      10 UNK        -0.4204 
     60 CA         31.9030    1.7855   -8.5731 C.3       10 UNK         0.0237 
     61 CB         32.1416    1.9801  -10.0828 C.3       10 UNK        -0.1985 
     62 C          33.2027    1.9475   -7.7648 C.2       10 UNK         0.4970 
     63 O          33.4232    3.0180   -7.1978 O.2       10 UNK        -0.4914 
     64 N          34.0134    0.8854   -7.7036 N.am      11 UNK        -0.4285 
     65 CA         35.2129    0.7321   -6.8614 C.3       11 UNK         0.1007 
     66 C          36.4153    1.6438   -7.2527 C.2       11 UNK         0.5703 
     67 N          36.4351    2.2368   -8.4406 N.am      11 UNK        -0.7361 
     68 O          37.3642    1.7912   -6.4855 O.2       11 UNK        -0.4986 
     69 C69        34.8906    0.7781   -5.3378 C.3       12 UNK        -0.0947 
     70 S70        33.5430   -0.3596   -4.8748 S.3       12 UNK        -0.2240 
     71 C71        33.6138   -0.2763   -3.0625 C.3       12 UNK         0.0194 
     72 H72        28.7650   -4.7060   -8.0834 H         1 UNK         0.0906 
     73 H73        28.6075   -6.3955   -8.5586 H         1 UNK         0.0906 
     74 H74        27.2492   -5.2903   -8.7737 H         1 UNK         0.0906 
     75 H75        28.5803   -4.3836   -5.8767 H         1 UNK         0.3140 
     76 H76        27.7443   -6.4283   -4.0836 H         1 UNK         0.1085 
     77 H77        28.1882   -4.6952   -2.3161 H         1 UNK         0.0836 
     78 H78        28.3886   -3.4753   -3.5527 H         1 UNK         0.0836 
     79 H79        31.8982   -4.8664   -1.7591 H         1 UNK         0.0731 
     80 H80        30.2910   -4.7310   -1.0983 H         1 UNK         0.0731 
     81 H81        33.0293   -2.9234   -2.8154 H         1 UNK         0.1312 
     82 H82        31.4233    0.9724   -2.0138 H         1 UNK         0.1406 
     83 H83        29.1362   -2.5283   -1.0619 H         1 UNK         0.1631 
     84 H84        29.3646    0.8928   -0.2486 H         1 UNK         0.0717 
     85 H85        28.2287   -0.4018   -0.5403 H         1 UNK         0.0717 
     86 H86        28.9777   -0.6095   -3.8847 H         1 UNK         0.0934 
     87 H87        27.4390   -0.9670   -3.1648 H         1 UNK         0.0934 
     88 H88        27.1910   -0.5895   -5.5404 H         1 UNK         0.0739 
     89 H89        25.6481    0.8561   -3.7273 H         1 UNK         0.3093 
     90 H90        23.7375    2.4149   -4.6305 H         1 UNK         0.0818 
     91 H91        23.1138    2.5867   -7.0265 H         1 UNK         0.0819 
     92 H92        21.7282    2.0825   -6.0739 H         1 UNK         0.0819 
     93 H93        22.6061    0.9041   -7.0496 H         1 UNK         0.0819 
     94 H94        22.6062   -0.3136   -4.8856 H         1 UNK         0.3041 
     95 H95        23.2343   -1.1308   -1.4955 H         1 UNK         0.0784 
     96 H96        21.0192    0.0298   -1.4215 H         1 UNK         0.0793 
     97 H97        20.5677   -0.7027   -2.9545 H         1 UNK         0.0793 
     98 H98        20.8229   -1.7107   -1.5292 H         1 UNK         0.0793 
     99 H99        22.0415   -2.6315   -3.5874 H         1 UNK         0.3024 
    100 H100       23.4569   -4.5975   -4.2247 H         1 UNK         0.1171 
    101 H101       23.5882   -4.1543   -6.7474 H         1 UNK         0.0786 
    102 H102       22.4250   -3.1385   -5.9188 H         1 UNK         0.0786 
    103 H103       23.9810   -2.4732   -6.3839 H         1 UNK         0.0786 
    104 H104       25.9353   -3.9405   -5.6484 H         1 UNK         0.2977 
    105 H105       27.2689    2.8735   -4.9552 H         1 UNK         0.3127 
    106 H106       29.6821    3.5143   -6.3007 H         1 UNK         0.0770 
    107 H107       27.1096    5.1541   -5.9635 H         1 UNK         0.0814 
    108 H108       28.6753    5.7998   -6.4342 H         1 UNK         0.0814 
    109 H109       28.4655    5.1104   -4.8341 H         1 UNK         0.0814 
    110 H110       26.6281    2.4378   -7.6084 H         1 UNK         0.2983 
    111 H111       27.4417    3.1843  -10.3904 H         1 UNK         0.0947 
    112 H112       25.0921    2.6126  -10.9670 H         1 UNK         0.0806 
    113 H113       25.1438    3.8893   -9.7622 H         1 UNK         0.0806 
    114 H114       24.7387    2.2425   -9.2847 H         1 UNK         0.0806 
    115 H115       26.3051    0.4713   -8.3141 H         1 UNK         0.3000 
    116 H116       26.5152   -1.4848  -10.3654 H         1 UNK         0.0850 
    117 H117       26.0017   -3.0847   -8.5319 H         1 UNK         0.0810 
    118 H118       24.9579   -1.6753   -8.4596 H         1 UNK         0.0810 
    119 H119       26.3018   -1.8351   -7.3311 H         1 UNK         0.0810 
    120 H120       28.7883   -0.6514   -7.7134 H         1 UNK         0.3040 
    121 H121       30.7256   -2.7092   -8.7065 H         1 UNK         0.0766 
    122 H122       30.0595   -2.9635   -6.3117 H         1 UNK         0.0812 
    123 H123       30.5736   -1.3123   -5.9788 H         1 UNK         0.0812 
    124 H124       31.7487   -2.5196   -6.4665 H         1 UNK         0.0812 
    125 H125       30.3267    0.6797   -7.7224 H         1 UNK         0.3205 
    126 H126       31.2445    2.5896   -8.2456 H         1 UNK         0.0754 
    127 H127       31.2020    1.9491  -10.6349 H         1 UNK         0.0769 
    128 H128       32.8006    1.2175  -10.4980 H         1 UNK         0.0769 
    129 H129       32.6012    2.9493  -10.2806 H         1 UNK         0.0769 
    130 H130       33.7263    0.0606   -8.2249 H         1 UNK         0.2981 
    131 H131       35.5681   -0.2766   -7.0737 H         1 UNK         0.0541 
    132 H132       35.6678    2.1163   -9.0818 H         1 UNK         0.3459 
    133 H133       37.2210    2.8154   -8.6919 H         1 UNK         0.3459 
    134 H134       35.7726    0.5098   -4.7538 H         1 UNK         0.0612 
    135 H135       34.6125    1.7879   -5.0326 H         1 UNK         0.0612 
    136 H136       34.5078   -0.7912   -2.7077 H         1 UNK         0.0624 
    137 H137       33.7041    0.7651   -2.7491 H         1 UNK         0.0624 
@<TRIPOS>BOND
     1    1    2 1    
     2    1   72 1    
     3    1   73 1    
     4    1   74 1    
     5    2    3 2    
     6    2    4 am   BACKBONE|DICT|INTERRES
     7    4    5 1    
     8    4   75 1    
     9    5    6 1    
    10    5   35 1    
    11    5   76 1    
    12    6    7 1    
    13    6   77 1    
    14    6   78 1    
    15    7    8 1    
    16    8    9 1    
    17    8   79 1    
    18    8   80 1    
    19    9   10 ar   
    20    9   14 ar   
    21   10   11 ar   
    22   10   81 1    
    23   11   12 ar   
    24   11   71 1    
    25   12   13 ar   
    26   12   82 1    
    27   13   14 ar   
    28   13   15 1    
    29   14   83 1    
    30   15   16 1    
    31   15   84 1    
    32   15   85 1    
    33   16   17 1    
    34   17   18 1    
    35   17   86 1    
    36   17   87 1    
    37   18   19 1    
    38   18   37 1    
    39   18   88 1    
    40   19   20 am   BACKBONE|DICT|INTERRES
    41   19   89 1    
    42   20   21 2    
    43   20   22 1    
    44   22   23 1    
    45   22   24 1    
    46   22   90 1    
    47   23   91 1    
    48   23   92 1    
    49   23   93 1    
    50   24   25 am   BACKBONE|DICT|INTERRES
    51   24   94 1    
    52   25   26 2    
    53   25   27 1    
    54   27   28 1    
    55   27   29 1    
    56   27   95 1    
    57   28   96 1    
    58   28   97 1    
    59   28   98 1    
    60   29   30 am   BACKBONE|DICT|INTERRES
    61   29   99 1    
    62   30   31 2    
    63   30   32 1    
    64   32   33 1    
    65   32   34 1    
    66   32  100 1    
    67   33  101 1    
    68   33  102 1    
    69   33  103 1    
    70   34   35 am   BACKBONE|DICT|INTERRES
    71   34  104 1    
    72   35   36 2    
    73   37   38 2    
    74   37   39 am   BACKBONE|DICT|INTERRES
    75   39   40 1    
    76   39  105 1    
    77   40   41 1    
    78   40   42 1    
    79   40  106 1    
    80   41  107 1    
    81   41  108 1    
    82   41  109 1    
    83   42   43 2    
    84   42   44 am   BACKBONE|DICT|INTERRES
    85   44   45 1    
    86   44  110 1    
    87   45   46 1    
    88   45   47 1    
    89   45  111 1    
    90   46  112 1    
    91   46  113 1    
    92   46  114 1    
    93   47   48 2    
    94   47   49 am   BACKBONE|DICT|INTERRES
    95   49   50 1    
    96   49  115 1    
    97   50   51 1    
    98   50   52 1    
    99   50  116 1    
   100   51  117 1    
   101   51  118 1    
   102   51  119 1    
   103   52   53 2    
   104   52   54 am   BACKBONE|DICT|INTERRES
   105   54   55 1    
   106   54  120 1    
   107   55   56 1    
   108   55   57 1    
   109   55  121 1    
   110   56  122 1    
   111   56  123 1    
   112   56  124 1    
   113   57   58 2    
   114   57   59 am   BACKBONE|DICT|INTERRES
   115   59   60 1    
   116   59  125 1    
   117   60   61 1    
   118   60   62 1    
   119   60  126 1    
   120   61  127 1    
   121   61  128 1    
   122   61  129 1    
   123   62   63 2    
   124   62   64 am   BACKBONE|DICT|INTERRES
   125   64   65 1    
   126   64  130 1    
   127   65   66 1    
   128   65   69 1    
   129   65  131 1    
   130   66   67 am   BACKBONE|DICT|INTERRES
   131   66   68 2    
   132   67  132 1    
   133   67  133 1    
   134   69   70 1    
   135   69  134 1    
   136   69  135 1    
   137   70   71 1    
   138   71  136 1    
   139   71  137 1    
@<TRIPOS>SUBSTRUCTURE
     1 UNK         1 GROUP             0       ****    0 ROOT    
