@<TRIPOS>MOLECULE
3R137
137   139    1
SMALL
USER_CHARGES


@<TRIPOS>ATOM
      1 CA         26.2194   -6.6548   -4.3607 C.3       0 UNK        -0.2020 
      2 C          25.9794   -5.7582   -3.1560 C.2       0 UNK         0.4855 
      3 O          24.8474   -5.3337   -2.9219 O.2       0 UNK        -0.5197 
      4 N          27.0404   -5.4560   -2.3981 N.am      1 UNK        -0.4892 
      5 CA         27.0539   -4.5678   -1.2302 C.3       1 UNK         0.0835 
      6 C6         28.4256   -4.5672   -0.4964 C.3       12 UNK        -0.0855 
      7 S7         29.8914   -4.7338   -1.5818 S.3       12 UNK        -0.2931 
      8 C8         31.0699   -3.5664   -0.8360 C.3       12 UNK         0.0378 
      9 C9         30.9933   -2.1900   -1.4790 C.ar      12 UNK        -0.0802 
     10 C10        31.5441   -1.9882   -2.7473 C.ar      12 UNK        -0.0944 
     11 C11        31.5370   -0.7190   -3.3418 C.ar      12 UNK        -0.0787 
     12 C12        30.9968    0.3531   -2.6248 C.ar      12 UNK        -0.0862 
     13 C13        30.4015    0.1611   -1.3727 C.ar      12 UNK        -0.0733 
     14 C14        30.4072   -1.1166   -0.8039 C.ar      12 UNK        -0.0832 
     15 C15        29.7581    1.3232   -0.6172 C.3       12 UNK         0.0240 
     16 S16        28.6703    2.3766   -1.6431 S.3       12 UNK        -0.2522 
     17 C17        27.5528    1.1564   -2.4118 C.3       12 UNK        -0.0967 
     18 CA         27.8779    0.9633   -3.9172 C.3       5 UNK         0.0660 
     19 N          27.7648   -0.4349   -4.3344 N.am      5 UNK        -0.4015 
     20 C          28.1764   -0.9187   -5.5150 C.2       4 UNK         0.4946 
     21 O          28.7579   -0.2497   -6.3672 O.2       4 UNK        -0.5353 
     22 CA         27.8220   -2.3818   -5.8216 C.3       4 UNK         0.0277 
     23 CB         28.8521   -3.3445   -5.2087 C.3       4 UNK        -0.1981 
     24 N          26.4754   -2.7104   -5.3468 N.am      4 UNK        -0.4209 
     25 C          25.3497   -2.2546   -5.9184 C.2       3 UNK         0.4942 
     26 O          25.3304   -1.6026   -6.9616 O.2       3 UNK        -0.5208 
     27 CA         24.0262   -2.5293   -5.1844 C.3       3 UNK         0.0250 
     28 CB         23.4084   -3.8584   -5.6453 C.3       3 UNK        -0.1990 
     29 N          24.1789   -2.5212   -3.7260 N.am      3 UNK        -0.4232 
     30 C          24.4062   -1.4075   -3.0115 C.2       2 UNK         0.4993 
     31 O          24.4695   -0.2844   -3.5080 O.2       2 UNK        -0.5286 
     32 CA         24.6616   -1.5618   -1.5020 C.3       2 UNK         0.0209 
     33 CB         23.3414   -1.4707   -0.7212 C.3       2 UNK        -0.1931 
     34 N          25.3555   -2.8028   -1.1494 N.am      2 UNK        -0.4546 
     35 C          26.5688   -3.1517   -1.5993 C.2       1 UNK         0.5154 
     36 O          27.2515   -2.4324   -2.3299 O.2       1 UNK        -0.5181 
     37 C          27.0731    1.9160   -4.8240 C.2       5 UNK         0.5014 
     38 O          27.6089    2.9393   -5.2504 O.2       5 UNK        -0.5248 
     39 N          25.8278    1.5418   -5.1537 N.am      6 UNK        -0.4434 
     40 CA         24.9563    2.2565   -6.0928 C.3       6 UNK         0.0363 
     41 CB         23.5599    1.6153   -6.0855 C.3       6 UNK        -0.1936 
     42 C          25.5102    2.3180   -7.5286 C.2       6 UNK         0.5081 
     43 O          25.2483    3.2940   -8.2318 O.2       6 UNK        -0.5248 
     44 N          26.2816    1.2986   -7.9323 N.am      7 UNK        -0.4718 
     45 CA         26.9992    1.2513   -9.2096 C.3       7 UNK         0.0273 
     46 CB         27.3439   -0.2091   -9.5384 C.3       7 UNK        -0.1935 
     47 C          28.2587    2.1421   -9.2383 C.2       7 UNK         0.5018 
     48 O          28.7911    2.3805  -10.3244 O.2       7 UNK        -0.5186 
     49 N          28.6976    2.6333   -8.0679 N.am      8 UNK        -0.4240 
     50 CA         29.7835    3.5904   -7.8383 C.3       8 UNK         0.0235 
     51 CB         29.3469    5.0038   -8.2854 C.3       8 UNK        -0.2000 
     52 C          31.1161    3.1263   -8.4508 C.2       8 UNK         0.4941 
     53 O          31.7645    2.2464   -7.8853 O.2       8 UNK        -0.5273 
     54 N          31.4970    3.7147   -9.5933 N.am      9 UNK        -0.4262 
     55 CA         32.6933    3.3655  -10.3618 C.3       9 UNK         0.0264 
     56 CB         32.9195    4.4223  -11.4549 C.3       9 UNK        -0.1955 
     57 C          32.6395    1.9563  -10.9788 C.2       9 UNK         0.5031 
     58 O          33.6953    1.3582  -11.1883 O.2       9 UNK        -0.5390 
     59 N          31.4315    1.4336  -11.2336 N.am      10 UNK        -0.4204 
     60 CA         31.1942    0.0864  -11.7570 C.3       10 UNK         0.0237 
     61 CB         30.0270    0.1368  -12.7613 C.3       10 UNK        -0.1985 
     62 C          30.9681   -0.9267  -10.6169 C.2       10 UNK         0.4970 
     63 O          30.0733   -1.7674  -10.7142 O.2       10 UNK        -0.4914 
     64 N          31.7798   -0.8245   -9.5559 N.am      11 UNK        -0.4285 
     65 CA         31.7986   -1.7160   -8.3885 C.3       11 UNK         0.1007 
     66 C          32.0423   -3.2017   -8.7817 C.2       11 UNK         0.5703 
     67 N          31.2342   -4.1268   -8.2811 N.am      11 UNK        -0.7361 
     68 O          32.9776   -3.5190   -9.5149 O.2       11 UNK        -0.4986 
     69 C69        32.8502   -1.2205   -7.3592 C.3       12 UNK        -0.0947 
     70 S70        32.5957   -1.9216   -5.6960 S.3       12 UNK        -0.2240 
     71 C71        32.0810   -0.4472   -4.7481 C.3       12 UNK         0.0194 
     72 H72        26.1277   -6.0808   -5.2822 H         1 UNK         0.0906 
     73 H73        27.2111   -7.1064   -4.3391 H         1 UNK         0.0906 
     74 H74        25.4836   -7.4582   -4.3835 H         1 UNK         0.0906 
     75 H75        27.9550   -5.8022   -2.6564 H         1 UNK         0.3140 
     76 H76        26.3266   -4.9798   -0.5270 H         1 UNK         0.1085 
     77 H77        28.5279   -3.6842    0.1378 H         1 UNK         0.0836 
     78 H78        28.4550   -5.4141    0.1910 H         1 UNK         0.0836 
     79 H79        32.0779   -3.9617   -0.9708 H         1 UNK         0.0731 
     80 H80        30.9150   -3.5091    0.2424 H         1 UNK         0.0731 
     81 H81        31.9739   -2.8371   -3.2585 H         1 UNK         0.1312 
     82 H82        31.0077    1.3423   -3.0615 H         1 UNK         0.1406 
     83 H83        29.9674   -1.2748    0.1713 H         1 UNK         0.1631 
     84 H84        30.5476    1.9445   -0.1928 H         1 UNK         0.0717 
     85 H85        29.1721    0.9529    0.2255 H         1 UNK         0.0717 
     86 H86        27.6543    0.2150   -1.8700 H         1 UNK         0.0934 
     87 H87        26.5176    1.4657   -2.2534 H         1 UNK         0.0934 
     88 H88        28.9234    1.2201   -4.0877 H         1 UNK         0.0739 
     89 H89        27.3851   -1.0882   -3.6541 H         1 UNK         0.3093 
     90 H90        27.8429   -2.5095   -6.9063 H         1 UNK         0.0818 
     91 H91        28.9106   -3.2478   -4.1248 H         1 UNK         0.0819 
     92 H92        28.6175   -4.3831   -5.4410 H         1 UNK         0.0819 
     93 H93        29.8496   -3.1404   -5.5967 H         1 UNK         0.0819 
     94 H94        26.4105   -3.1827   -4.4565 H         1 UNK         0.3041 
     95 H95        23.3312   -1.7306   -5.4524 H         1 UNK         0.0784 
     96 H96        23.2273   -3.8489   -6.7210 H         1 UNK         0.0793 
     97 H97        24.0587   -4.7065   -5.4344 H         1 UNK         0.0793 
     98 H98        22.4508   -4.0412   -5.1575 H         1 UNK         0.0793 
     99 H99        24.1864   -3.4229   -3.2580 H         1 UNK         0.3024 
    100 H100       25.2985   -0.7293   -1.1957 H         1 UNK         0.1171 
    101 H101       23.5146   -1.4826    0.3551 H         1 UNK         0.0786 
    102 H102       22.8154   -0.5430   -0.9521 H         1 UNK         0.0786 
    103 H103       22.6698   -2.2952   -0.9638 H         1 UNK         0.0786 
    104 H104       24.8360   -3.4647   -0.5903 H         1 UNK         0.2977 
    105 H105       25.4225    0.7298   -4.6896 H         1 UNK         0.3127 
    106 H106       24.8625    3.2838   -5.7350 H         1 UNK         0.0770 
    107 H107       23.5929    0.5784   -6.4210 H         1 UNK         0.0814 
    108 H108       22.8801    2.1517   -6.7489 H         1 UNK         0.0814 
    109 H109       23.1197    1.6317   -5.0883 H         1 UNK         0.0814 
    110 H110       26.4187    0.5150   -7.3061 H         1 UNK         0.2983 
    111 H111       26.3290    1.6205   -9.9889 H         1 UNK         0.0947 
    112 H112       27.7366   -0.2959  -10.5507 H         1 UNK         0.0806 
    113 H113       26.4647   -0.8509   -9.4801 H         1 UNK         0.0806 
    114 H114       28.0988   -0.6121   -8.8636 H         1 UNK         0.0806 
    115 H115       28.2079    2.3436   -7.2291 H         1 UNK         0.3000 
    116 H116       29.9404    3.6212   -6.7589 H         1 UNK         0.0850 
    117 H117       30.1394    5.7345   -8.1176 H         1 UNK         0.0810 
    118 H118       28.4808    5.3373   -7.7133 H         1 UNK         0.0810 
    119 H119       29.0726    5.0421   -9.3402 H         1 UNK         0.0810 
    120 H120       30.8851    4.4110   -9.9939 H         1 UNK         0.3040 
    121 H121       33.5461    3.3903   -9.6798 H         1 UNK         0.0766 
    122 H122       33.0430    5.4173  -11.0268 H         1 UNK         0.0812 
    123 H123       32.0880    4.4592  -12.1600 H         1 UNK         0.0812 
    124 H124       33.8222    4.2039  -12.0273 H         1 UNK         0.0812 
    125 H125       30.6014    1.9581  -10.9656 H         1 UNK         0.3205 
    126 H126       32.0747   -0.2562  -12.3045 H         1 UNK         0.0754 
    127 H127       29.8358   -0.8454  -13.1954 H         1 UNK         0.0769 
    128 H128       30.2478    0.8143  -13.5862 H         1 UNK         0.0769 
    129 H129       29.1033    0.4755  -12.2932 H         1 UNK         0.0769 
    130 H130       32.4912   -0.1085   -9.5735 H         1 UNK         0.2981 
    131 H131       30.8094   -1.6334   -7.9330 H         1 UNK         0.0541 
    132 H132       30.4697   -3.8764   -7.6767 H         1 UNK         0.3459 
    133 H133       31.3900   -5.0930   -8.5210 H         1 UNK         0.3459 
    134 H134       32.8138   -0.1336   -7.2785 H         1 UNK         0.0612 
    135 H135       33.8637   -1.4565   -7.6889 H         1 UNK         0.0612 
    136 H136       32.9312    0.2319   -4.6743 H         1 UNK         0.0624 
    137 H137       31.3122    0.0743   -5.3210 H         1 UNK         0.0624 
@<TRIPOS>BOND
     1    1    2 1    
     2    1   72 1    
     3    1   73 1    
     4    1   74 1    
     5    2    3 2    
     6    2    4 am   BACKBONE|DICT|INTERRES
     7    4    5 1    
     8    4   75 1    
     9    5    6 1    
    10    5   35 1    
    11    5   76 1    
    12    6    7 1    
    13    6   77 1    
    14    6   78 1    
    15    7    8 1    
    16    8    9 1    
    17    8   79 1    
    18    8   80 1    
    19    9   10 ar   
    20    9   14 ar   
    21   10   11 ar   
    22   10   81 1    
    23   11   12 ar   
    24   11   71 1    
    25   12   13 ar   
    26   12   82 1    
    27   13   14 ar   
    28   13   15 1    
    29   14   83 1    
    30   15   16 1    
    31   15   84 1    
    32   15   85 1    
    33   16   17 1    
    34   17   18 1    
    35   17   86 1    
    36   17   87 1    
    37   18   19 1    
    38   18   37 1    
    39   18   88 1    
    40   19   20 am   BACKBONE|DICT|INTERRES
    41   19   89 1    
    42   20   21 2    
    43   20   22 1    
    44   22   23 1    
    45   22   24 1    
    46   22   90 1    
    47   23   91 1    
    48   23   92 1    
    49   23   93 1    
    50   24   25 am   BACKBONE|DICT|INTERRES
    51   24   94 1    
    52   25   26 2    
    53   25   27 1    
    54   27   28 1    
    55   27   29 1    
    56   27   95 1    
    57   28   96 1    
    58   28   97 1    
    59   28   98 1    
    60   29   30 am   BACKBONE|DICT|INTERRES
    61   29   99 1    
    62   30   31 2    
    63   30   32 1    
    64   32   33 1    
    65   32   34 1    
    66   32  100 1    
    67   33  101 1    
    68   33  102 1    
    69   33  103 1    
    70   34   35 am   BACKBONE|DICT|INTERRES
    71   34  104 1    
    72   35   36 2    
    73   37   38 2    
    74   37   39 am   BACKBONE|DICT|INTERRES
    75   39   40 1    
    76   39  105 1    
    77   40   41 1    
    78   40   42 1    
    79   40  106 1    
    80   41  107 1    
    81   41  108 1    
    82   41  109 1    
    83   42   43 2    
    84   42   44 am   BACKBONE|DICT|INTERRES
    85   44   45 1    
    86   44  110 1    
    87   45   46 1    
    88   45   47 1    
    89   45  111 1    
    90   46  112 1    
    91   46  113 1    
    92   46  114 1    
    93   47   48 2    
    94   47   49 am   BACKBONE|DICT|INTERRES
    95   49   50 1    
    96   49  115 1    
    97   50   51 1    
    98   50   52 1    
    99   50  116 1    
   100   51  117 1    
   101   51  118 1    
   102   51  119 1    
   103   52   53 2    
   104   52   54 am   BACKBONE|DICT|INTERRES
   105   54   55 1    
   106   54  120 1    
   107   55   56 1    
   108   55   57 1    
   109   55  121 1    
   110   56  122 1    
   111   56  123 1    
   112   56  124 1    
   113   57   58 2    
   114   57   59 am   BACKBONE|DICT|INTERRES
   115   59   60 1    
   116   59  125 1    
   117   60   61 1    
   118   60   62 1    
   119   60  126 1    
   120   61  127 1    
   121   61  128 1    
   122   61  129 1    
   123   62   63 2    
   124   62   64 am   BACKBONE|DICT|INTERRES
   125   64   65 1    
   126   64  130 1    
   127   65   66 1    
   128   65   69 1    
   129   65  131 1    
   130   66   67 am   BACKBONE|DICT|INTERRES
   131   66   68 2    
   132   67  132 1    
   133   67  133 1    
   134   69   70 1    
   135   69  134 1    
   136   69  135 1    
   137   70   71 1    
   138   71  136 1    
   139   71  137 1    
@<TRIPOS>SUBSTRUCTURE
     1 UNK         1 GROUP             0       ****    0 ROOT    
