@<TRIPOS>MOLECULE
3R137
137   139    1
SMALL
USER_CHARGES


@<TRIPOS>ATOM
      1 CA         28.7104   -0.2039    2.2624 C.3       0 UNK        -0.2020 
      2 C          28.2779   -1.6671    2.3139 C.2       0 UNK         0.4855 
      3 O          28.1454   -2.2181    3.4046 O.2       0 UNK        -0.5197 
      4 N          28.0491   -2.3422    1.1779 N.am      1 UNK        -0.4892 
      5 CA         28.1352   -1.8301   -0.1993 C.3       1 UNK         0.0835 
      6 C6         28.1983   -2.9789   -1.2367 C.3       12 UNK        -0.0855 
      7 S7         29.5941   -4.1200   -0.9542 S.3       12 UNK        -0.2931 
      8 C8         30.8604   -3.4396   -2.0835 C.3       12 UNK         0.0378 
      9 C9         30.5908   -3.5933   -3.5838 C.ar      12 UNK        -0.0802 
     10 C10        31.4352   -2.9223   -4.4730 C.ar      12 UNK        -0.0944 
     11 C11        31.2547   -3.0124   -5.8605 C.ar      12 UNK        -0.0787 
     12 C12        30.2084   -3.8014   -6.3510 C.ar      12 UNK        -0.0862 
     13 C13        29.3576   -4.4877   -5.4798 C.ar      12 UNK        -0.0733 
     14 C14        29.5554   -4.3821   -4.1011 C.ar      12 UNK        -0.0832 
     15 C15        28.2371   -5.3684   -6.0141 C.3       12 UNK         0.0240 
     16 S16        26.6807   -4.4448   -6.2231 S.3       12 UNK        -0.2522 
     17 C17        26.7802   -3.9217   -7.9720 C.3       12 UNK        -0.0967 
     18 CA         26.5884   -2.4037   -8.2019 C.3       5 UNK         0.0660 
     19 N          25.3250   -1.9011   -7.6592 N.am      5 UNK        -0.4015 
     20 C          24.8327   -0.6744   -7.8816 C.2       4 UNK         0.4946 
     21 O          25.3694    0.1514   -8.6213 O.2       4 UNK        -0.5353 
     22 CA         23.5548   -0.2784   -7.1226 C.3       4 UNK         0.0277 
     23 CB         22.3210   -0.4812   -8.0161 C.3       4 UNK        -0.1981 
     24 N          23.3569   -0.9798   -5.8469 N.am      4 UNK        -0.4209 
     25 C          24.1998   -0.9390   -4.8056 C.2       3 UNK         0.4942 
     26 O          25.2940   -0.3702   -4.8256 O.2       3 UNK        -0.5208 
     27 CA         23.7655   -1.6951   -3.5481 C.3       3 UNK         0.0250 
     28 CB         24.2402   -3.1580   -3.5970 C.3       3 UNK        -0.1990 
     29 N          24.3457   -1.0349   -2.3841 N.am      3 UNK        -0.4232 
     30 C          23.7896   -0.9585   -1.1709 C.2       2 UNK         0.4993 
     31 O          22.6997   -1.4596   -0.8865 O.2       2 UNK        -0.5286 
     32 CA         24.6154   -0.2375   -0.0882 C.3       2 UNK         0.0209 
     33 CB         23.8462   -0.0659    1.2356 C.3       2 UNK        -0.1931 
     34 N          25.8556   -0.9688    0.1778 N.am      2 UNK        -0.4546 
     35 C          26.9708   -0.8847   -0.5601 C.2       1 UNK         0.5154 
     36 O          27.0914   -0.1124   -1.5106 O.2       1 UNK        -0.5181 
     37 C          27.8134   -1.5848   -7.7482 C.2       5 UNK         0.5014 
     38 O          28.7467   -1.4359   -8.5374 O.2       5 UNK        -0.5248 
     39 N          27.7795   -1.0277   -6.5265 N.am      6 UNK        -0.4434 
     40 CA         28.8398   -0.1656   -6.0018 C.3       6 UNK         0.0363 
     41 CB         28.6552    0.0501   -4.4942 C.3       6 UNK        -0.1936 
     42 C          28.9369    1.1738   -6.7455 C.2       6 UNK         0.5081 
     43 O          30.0394    1.7020   -6.8887 O.2       6 UNK        -0.5248 
     44 N          27.7996    1.6819   -7.2366 N.am      7 UNK        -0.4718 
     45 CA         27.7454    2.8480   -8.1141 C.3       7 UNK         0.0273 
     46 CB         26.3484    3.4874   -8.0519 C.3       7 UNK        -0.1935 
     47 C          28.1228    2.4692   -9.5535 C.2       7 UNK         0.5018 
     48 O          28.9780    3.1295  -10.1428 O.2       7 UNK        -0.5186 
     49 N          27.4992    1.4058  -10.0841 N.am      8 UNK        -0.4240 
     50 CA         27.6552    0.9482  -11.4690 C.3       8 UNK         0.0235 
     51 CB         26.6586   -0.1840  -11.7612 C.3       8 UNK        -0.2000 
     52 C          29.0857    0.5178  -11.8338 C.2       8 UNK         0.4941 
     53 O          29.5631    0.8857  -12.9078 O.2       8 UNK        -0.5273 
     54 N          29.7510   -0.2264  -10.9387 N.am      9 UNK        -0.4262 
     55 CA         31.1453   -0.6542  -11.0993 C.3       9 UNK         0.0264 
     56 CB         31.3095   -2.0793  -10.5442 C.3       9 UNK        -0.1955 
     57 C          32.1548    0.3331  -10.4785 C.2       9 UNK         0.5031 
     58 O          33.3533    0.0500  -10.5059 O.2       9 UNK        -0.5390 
     59 N          31.6692    1.4743   -9.9637 N.am      10 UNK        -0.4204 
     60 CA         32.4283    2.6137   -9.4359 C.3       10 UNK         0.0237 
     61 CB         33.1736    3.3383  -10.5777 C.3       10 UNK        -0.1985 
     62 C          33.3417    2.2707   -8.2419 C.2       10 UNK         0.4970 
     63 O          34.4769    2.7484   -8.1793 O.2       10 UNK        -0.4914 
     64 N          32.8173    1.4817   -7.2978 N.am      11 UNK        -0.4285 
     65 CA         33.4144    1.2928   -5.9671 C.3       11 UNK         0.1007 
     66 C          33.0801    2.4670   -5.0051 C.2       11 UNK         0.5703 
     67 N          31.9420    3.1352   -5.1590 N.am      11 UNK        -0.7361 
     68 O          33.8675    2.7781   -4.1148 O.2       11 UNK        -0.4986 
     69 C69        33.0063   -0.0555   -5.3247 C.3       12 UNK        -0.0947 
     70 S70        33.6610   -1.5012   -6.2247 S.3       12 UNK        -0.2240 
     71 C71        32.1368   -2.2702   -6.8722 C.3       12 UNK         0.0194 
     72 H72        29.5795   -0.0686    1.6198 H         1 UNK         0.0906 
     73 H73        27.9009    0.4307    1.9038 H         1 UNK         0.0906 
     74 H74        28.9851    0.1449    3.2577 H         1 UNK         0.0906 
     75 H75        27.8070   -3.3208    1.2482 H         1 UNK         0.3140 
     76 H76        29.0546   -1.2504   -0.2979 H         1 UNK         0.1085 
     77 H77        27.2784   -3.5668   -1.2126 H         1 UNK         0.0836 
     78 H78        28.2663   -2.5785   -2.2499 H         1 UNK         0.0836 
     79 H79        31.8088   -3.9288   -1.8572 H         1 UNK         0.0731 
     80 H80        30.9972   -2.3828   -1.8486 H         1 UNK         0.0731 
     81 H81        32.2369   -2.3276   -4.0625 H         1 UNK         0.1312 
     82 H82        30.0534   -3.8778   -7.4187 H         1 UNK         0.1406 
     83 H83        28.8952   -4.9240   -3.4394 H         1 UNK         0.1631 
     84 H84        28.0552   -6.1887   -5.3181 H         1 UNK         0.0717 
     85 H85        28.5335   -5.8412   -6.9514 H         1 UNK         0.0717 
     86 H86        27.7226   -4.2496   -8.4143 H         1 UNK         0.0934 
     87 H87        26.0076   -4.4663   -8.5172 H         1 UNK         0.0934 
     88 H88        26.5234   -2.2652   -9.2816 H         1 UNK         0.0739 
     89 H89        24.8343   -2.5157   -7.0268 H         1 UNK         0.3093 
     90 H90        23.6399    0.7867   -6.8964 H         1 UNK         0.0818 
     91 H91        21.4176   -0.0996   -7.5399 H         1 UNK         0.0819 
     92 H92        22.4333    0.0500   -8.9626 H         1 UNK         0.0819 
     93 H93        22.1597   -1.5341   -8.2509 H         1 UNK         0.0819 
     94 H94        22.4891   -1.4873   -5.7455 H         1 UNK         0.3041 
     95 H95        22.6755   -1.6644   -3.4836 H         1 UNK         0.0784 
     96 H96        23.8391   -3.6758   -4.4691 H         1 UNK         0.0793 
     97 H97        25.3281   -3.2253   -3.6474 H         1 UNK         0.0793 
     98 H98        23.9136   -3.7095   -2.7153 H         1 UNK         0.0793 
     99 H99        25.2377   -0.5775   -2.5517 H         1 UNK         0.3024 
    100 H100       24.8535    0.7594   -0.4676 H         1 UNK         0.1171 
    101 H101       24.4355    0.4879    1.9667 H         1 UNK         0.0786 
    102 H102       22.9206    0.4900    1.0797 H         1 UNK         0.0786 
    103 H103       23.5799   -1.0265    1.6783 H         1 UNK         0.0786 
    104 H104       25.8298   -1.6528    0.9210 H         1 UNK         0.2977 
    105 H105       26.9560   -1.1426   -5.9461 H         1 UNK         0.3127 
    106 H106       29.7856   -0.6831   -6.1469 H         1 UNK         0.0770 
    107 H107       27.7274    0.5765   -4.2686 H         1 UNK         0.0814 
    108 H108       28.6421   -0.8990   -3.9591 H         1 UNK         0.0814 
    109 H109       29.4735    0.6422   -4.0824 H         1 UNK         0.0814 
    110 H110       26.9418    1.1626   -7.1073 H         1 UNK         0.2983 
    111 H111       28.4679    3.5885   -7.7626 H         1 UNK         0.0947 
    112 H112       26.1040    3.8035   -7.0377 H         1 UNK         0.0806 
    113 H113       25.5671    2.8040   -8.3856 H         1 UNK         0.0806 
    114 H114       26.2985    4.3726   -8.6873 H         1 UNK         0.0806 
    115 H115       26.7944    0.9292   -9.5238 H         1 UNK         0.3000 
    116 H116       27.3974    1.7930  -12.1114 H         1 UNK         0.0850 
    117 H117       26.6878   -0.4649  -12.8148 H         1 UNK         0.0810 
    118 H118       25.6352    0.1151  -11.5330 H         1 UNK         0.0810 
    119 H119       26.8854   -1.0778  -11.1821 H         1 UNK         0.0810 
    120 H120       29.2869   -0.5190  -10.0795 H         1 UNK         0.3040 
    121 H121       31.3877   -0.7008  -12.1631 H         1 UNK         0.0766 
    122 H122       31.0425   -2.1362   -9.4924 H         1 UNK         0.0812 
    123 H123       32.3381   -2.4287  -10.6416 H         1 UNK         0.0812 
    124 H124       30.6769   -2.7849  -11.0827 H         1 UNK         0.0812 
    125 H125       30.6674    1.6151  -10.0045 H         1 UNK         0.3205 
    126 H126       31.6831    3.3082   -9.0444 H         1 UNK         0.0754 
    127 H127       33.6352    4.2605  -10.2226 H         1 UNK         0.0769 
    128 H128       32.4925    3.6095  -11.3845 H         1 UNK         0.0769 
    129 H129       33.9655    2.7189  -11.0005 H         1 UNK         0.0769 
    130 H130       31.8383    1.2283   -7.3795 H         1 UNK         0.2981 
    131 H131       34.5009    1.2822   -6.0746 H         1 UNK         0.0541 
    132 H132       31.2651    2.8315   -5.8508 H         1 UNK         0.3459 
    133 H133       31.7276    3.9003   -4.5401 H         1 UNK         0.3459 
    134 H134       31.9209   -0.1231   -5.2418 H         1 UNK         0.0612 
    135 H135       33.3913   -0.1217   -4.3053 H         1 UNK         0.0612 
    136 H136       32.4367   -2.9736   -7.6501 H         1 UNK         0.0624 
    137 H137       31.5475   -1.4970   -7.3646 H         1 UNK         0.0624 
@<TRIPOS>BOND
     1    1    2 1    
     2    1   72 1    
     3    1   73 1    
     4    1   74 1    
     5    2    3 2    
     6    2    4 am   BACKBONE|DICT|INTERRES
     7    4    5 1    
     8    4   75 1    
     9    5    6 1    
    10    5   35 1    
    11    5   76 1    
    12    6    7 1    
    13    6   77 1    
    14    6   78 1    
    15    7    8 1    
    16    8    9 1    
    17    8   79 1    
    18    8   80 1    
    19    9   10 ar   
    20    9   14 ar   
    21   10   11 ar   
    22   10   81 1    
    23   11   12 ar   
    24   11   71 1    
    25   12   13 ar   
    26   12   82 1    
    27   13   14 ar   
    28   13   15 1    
    29   14   83 1    
    30   15   16 1    
    31   15   84 1    
    32   15   85 1    
    33   16   17 1    
    34   17   18 1    
    35   17   86 1    
    36   17   87 1    
    37   18   19 1    
    38   18   37 1    
    39   18   88 1    
    40   19   20 am   BACKBONE|DICT|INTERRES
    41   19   89 1    
    42   20   21 2    
    43   20   22 1    
    44   22   23 1    
    45   22   24 1    
    46   22   90 1    
    47   23   91 1    
    48   23   92 1    
    49   23   93 1    
    50   24   25 am   BACKBONE|DICT|INTERRES
    51   24   94 1    
    52   25   26 2    
    53   25   27 1    
    54   27   28 1    
    55   27   29 1    
    56   27   95 1    
    57   28   96 1    
    58   28   97 1    
    59   28   98 1    
    60   29   30 am   BACKBONE|DICT|INTERRES
    61   29   99 1    
    62   30   31 2    
    63   30   32 1    
    64   32   33 1    
    65   32   34 1    
    66   32  100 1    
    67   33  101 1    
    68   33  102 1    
    69   33  103 1    
    70   34   35 am   BACKBONE|DICT|INTERRES
    71   34  104 1    
    72   35   36 2    
    73   37   38 2    
    74   37   39 am   BACKBONE|DICT|INTERRES
    75   39   40 1    
    76   39  105 1    
    77   40   41 1    
    78   40   42 1    
    79   40  106 1    
    80   41  107 1    
    81   41  108 1    
    82   41  109 1    
    83   42   43 2    
    84   42   44 am   BACKBONE|DICT|INTERRES
    85   44   45 1    
    86   44  110 1    
    87   45   46 1    
    88   45   47 1    
    89   45  111 1    
    90   46  112 1    
    91   46  113 1    
    92   46  114 1    
    93   47   48 2    
    94   47   49 am   BACKBONE|DICT|INTERRES
    95   49   50 1    
    96   49  115 1    
    97   50   51 1    
    98   50   52 1    
    99   50  116 1    
   100   51  117 1    
   101   51  118 1    
   102   51  119 1    
   103   52   53 2    
   104   52   54 am   BACKBONE|DICT|INTERRES
   105   54   55 1    
   106   54  120 1    
   107   55   56 1    
   108   55   57 1    
   109   55  121 1    
   110   56  122 1    
   111   56  123 1    
   112   56  124 1    
   113   57   58 2    
   114   57   59 am   BACKBONE|DICT|INTERRES
   115   59   60 1    
   116   59  125 1    
   117   60   61 1    
   118   60   62 1    
   119   60  126 1    
   120   61  127 1    
   121   61  128 1    
   122   61  129 1    
   123   62   63 2    
   124   62   64 am   BACKBONE|DICT|INTERRES
   125   64   65 1    
   126   64  130 1    
   127   65   66 1    
   128   65   69 1    
   129   65  131 1    
   130   66   67 am   BACKBONE|DICT|INTERRES
   131   66   68 2    
   132   67  132 1    
   133   67  133 1    
   134   69   70 1    
   135   69  134 1    
   136   69  135 1    
   137   70   71 1    
   138   71  136 1    
   139   71  137 1    
@<TRIPOS>SUBSTRUCTURE
     1 UNK         1 GROUP             0       ****    0 ROOT    
