@<TRIPOS>MOLECULE
3R137
137   139    1
SMALL
USER_CHARGES


@<TRIPOS>ATOM
      1 CA         29.1496   -3.8407    1.1613 C.3       0 UNK        -0.2020 
      2 C          28.7673   -2.4462    0.6886 C.2       0 UNK         0.4855 
      3 O          28.3254   -1.6267    1.4941 O.2       0 UNK        -0.5197 
      4 N          28.9375   -2.1718   -0.6115 N.am      1 UNK        -0.4892 
      5 CA         28.6104   -0.8890   -1.2496 C.3       1 UNK         0.0835 
      6 C6         29.2581   -0.7615   -2.6506 C.3       12 UNK        -0.0855 
      7 S7         31.0847   -0.6795   -2.5873 S.3       12 UNK        -0.2931 
      8 C8         31.6074   -2.4059   -2.8728 C.3       12 UNK         0.0378 
      9 C9         31.2710   -2.8807   -4.2781 C.ar      12 UNK        -0.0802 
     10 C10        32.0557   -2.4781   -5.3616 C.ar      12 UNK        -0.0944 
     11 C11        31.7269   -2.8725   -6.6623 C.ar      12 UNK        -0.0787 
     12 C12        30.5971   -3.6678   -6.8746 C.ar      12 UNK        -0.0862 
     13 C13        29.8021   -4.0759   -5.7985 C.ar      12 UNK        -0.0733 
     14 C14        30.1645   -3.7051   -4.4995 C.ar      12 UNK        -0.0832 
     15 C15        28.5176   -4.8595   -6.0553 C.3       12 UNK         0.0240 
     16 S16        27.0555   -4.1679   -5.1976 S.3       12 UNK        -0.2522 
     17 C17        27.1448   -2.3890   -5.6044 C.3       12 UNK        -0.0967 
     18 CA         26.1010   -1.9369   -6.6499 C.3       5 UNK         0.0660 
     19 N          24.7285   -2.1486   -6.1894 N.am      5 UNK        -0.4015 
     20 C          23.6747   -2.3683   -6.9861 C.2       4 UNK         0.4946 
     21 O          23.7482   -2.4526   -8.2126 O.2       4 UNK        -0.5353 
     22 CA         22.3017   -2.5259   -6.3046 C.3       4 UNK         0.0277 
     23 CB         22.0080   -4.0103   -6.0325 C.3       4 UNK        -0.1981 
     24 N          22.1912   -1.7745   -5.0512 N.am      4 UNK        -0.4209 
     25 C          22.1132   -0.4383   -4.9721 C.2       3 UNK         0.4942 
     26 O          22.0282    0.2998   -5.9532 O.2       3 UNK        -0.5208 
     27 CA         22.1757    0.1863   -3.5643 C.3       3 UNK         0.0250 
     28 CB         20.7574    0.4154   -3.0179 C.3       3 UNK        -0.1990 
     29 N          22.9564   -0.5827   -2.5839 N.am      3 UNK        -0.4232 
     30 C          24.2463   -0.9249   -2.7148 C.2       2 UNK         0.4993 
     31 O          24.9165   -0.6753   -3.7184 O.2       2 UNK        -0.5286 
     32 CA         24.8522   -1.7553   -1.5698 C.3       2 UNK         0.0209 
     33 CB         24.3980   -3.2207   -1.6874 C.3       2 UNK        -0.1931 
     34 N          26.3180   -1.7318   -1.5358 N.am      2 UNK        -0.4546 
     35 C          27.0844   -0.6519   -1.3186 C.2       1 UNK         0.5154 
     36 O          26.6381    0.4817   -1.1342 O.2       1 UNK        -0.5181 
     37 C          26.3529   -0.4583   -6.9929 C.2       5 UNK         0.5014 
     38 O          27.1386   -0.1920   -7.9001 O.2       5 UNK        -0.5248 
     39 N          25.7141    0.4606   -6.2483 N.am      6 UNK        -0.4434 
     40 CA         25.9238    1.9169   -6.2146 C.3       6 UNK         0.0363 
     41 CB         24.8010    2.5634   -5.3890 C.3       6 UNK        -0.1936 
     42 C          26.0733    2.6413   -7.5653 C.2       6 UNK         0.5081 
     43 O          26.7751    3.6511   -7.6244 O.2       6 UNK        -0.5248 
     44 N          25.4472    2.1130   -8.6245 N.am      7 UNK        -0.4718 
     45 CA         25.5788    2.5923  -10.0033 C.3       7 UNK         0.0273 
     46 CB         24.5552    1.8585  -10.8849 C.3       7 UNK        -0.1935 
     47 C          26.9971    2.4483  -10.5952 C.2       7 UNK         0.5018 
     48 O          27.3278    3.1890  -11.5224 O.2       7 UNK        -0.5186 
     49 N          27.8039    1.5156  -10.0701 N.am      8 UNK        -0.4240 
     50 CA         29.1741    1.2438  -10.5095 C.3       8 UNK         0.0235 
     51 CB         29.1560    0.2624  -11.6995 C.3       8 UNK        -0.2000 
     52 C          30.0392    0.7514   -9.3355 C.2       8 UNK         0.4941 
     53 O          30.8541   -0.1545   -9.5154 O.2       8 UNK        -0.5273 
     54 N          29.8367    1.3427   -8.1503 N.am      9 UNK        -0.4262 
     55 CA         30.5581    1.0238   -6.9153 C.3       9 UNK         0.0264 
     56 CB         29.7253    1.5119   -5.7178 C.3       9 UNK        -0.1955 
     57 C          31.9807    1.6147   -6.8846 C.2       9 UNK         0.5031 
     58 O          32.3404    2.4161   -7.7507 O.2       9 UNK        -0.5390 
     59 N          32.7496    1.2173   -5.8579 N.am      10 UNK        -0.4204 
     60 CA         34.1313    1.6315   -5.5677 C.3       10 UNK         0.0237 
     61 CB         34.2020    3.1374   -5.2321 C.3       10 UNK        -0.1985 
     62 C          35.1384    1.2040   -6.6557 C.2       10 UNK         0.4970 
     63 O          36.0412    1.9664   -7.0048 O.2       10 UNK        -0.4914 
     64 N          34.9662   -0.0242   -7.1570 N.am      11 UNK        -0.4285 
     65 CA         35.8334   -0.6842   -8.1456 C.3       11 UNK         0.1007 
     66 C          37.2048   -1.1794   -7.5964 C.2       11 UNK         0.5703 
     67 N          37.4465   -1.1697   -6.2904 N.am      11 UNK        -0.7361 
     68 O          38.0734   -1.5656   -8.3752 O.2       11 UNK        -0.4986 
     69 C69        35.0677   -1.8017   -8.9088 C.3       12 UNK        -0.0947 
     70 S70        34.2556   -3.0181   -7.8107 S.3       12 UNK        -0.2240 
     71 C71        32.5518   -2.3814   -7.8416 C.3       12 UNK         0.0194 
     72 H72        28.2815   -4.3432    1.5871 H         1 UNK         0.0906 
     73 H73        29.5340   -4.4578    0.3494 H         1 UNK         0.0906 
     74 H74        29.9182   -3.7777    1.9313 H         1 UNK         0.0906 
     75 H75        29.3191   -2.8807   -1.2185 H         1 UNK         0.3140 
     76 H76        29.0172   -0.0940   -0.6197 H         1 UNK         0.1085 
     77 H77        28.9393   -1.5728   -3.3030 H         1 UNK         0.0836 
     78 H78        28.9175    0.1560   -3.1337 H         1 UNK         0.0836 
     79 H79        32.6857   -2.4724   -2.7208 H         1 UNK         0.0731 
     80 H80        31.1604   -3.0589   -2.1231 H         1 UNK         0.0731 
     81 H81        32.9172   -1.8484   -5.1907 H         1 UNK         0.1312 
     82 H82        30.3205   -3.9450   -7.8827 H         1 UNK         0.1406 
     83 H83        29.5502   -4.0190   -3.6671 H         1 UNK         0.1631 
     84 H84        28.6610   -5.8918   -5.7339 H         1 UNK         0.0717 
     85 H85        28.2977   -4.8957   -7.1234 H         1 UNK         0.0717 
     86 H86        27.0141   -1.8376   -4.6728 H         1 UNK         0.0934 
     87 H87        28.1464   -2.1321   -5.9507 H         1 UNK         0.0934 
     88 H88        26.2635   -2.5167   -7.5612 H         1 UNK         0.0739 
     89 H89        24.5812   -2.0328   -5.1943 H         1 UNK         0.3093 
     90 H90        21.5454   -2.1486   -6.9966 H         1 UNK         0.0818 
     91 H91        21.0099   -4.1484   -5.6163 H         1 UNK         0.0819 
     92 H92        22.0554   -4.5917   -6.9545 H         1 UNK         0.0819 
     93 H93        22.7270   -4.4452   -5.3368 H         1 UNK         0.0819 
     94 H94        22.2305   -2.3040   -4.1927 H         1 UNK         0.3041 
     95 H95        22.6585    1.1597   -3.6675 H         1 UNK         0.0784 
     96 H96        20.1612    1.0066   -3.7148 H         1 UNK         0.0793 
     97 H97        20.2297   -0.5251   -2.8546 H         1 UNK         0.0793 
     98 H98        20.7780    0.9589   -2.0730 H         1 UNK         0.0793 
     99 H99        22.4704   -0.8467   -1.7384 H         1 UNK         0.3024 
    100 H100       24.4935   -1.3421   -0.6245 H         1 UNK         0.1171 
    101 H101       23.3106   -3.3043   -1.6690 H         1 UNK         0.0786 
    102 H102       24.7764   -3.8206   -0.8593 H         1 UNK         0.0786 
    103 H103       24.7451   -3.6766   -2.6163 H         1 UNK         0.0786 
    104 H104       26.7828   -2.6161   -1.6746 H         1 UNK         0.2977 
    105 H105       25.1593    0.0984   -5.4779 H         1 UNK         0.3127 
    106 H106       26.8542    2.0822   -5.6723 H         1 UNK         0.0770 
    107 H107       23.8219    2.3858   -5.8349 H         1 UNK         0.0814 
    108 H108       24.9363    3.6437   -5.3183 H         1 UNK         0.0814 
    109 H109       24.7861    2.1753   -4.3705 H         1 UNK         0.0814 
    110 H110       24.9088    1.2704   -8.4819 H         1 UNK         0.2983 
    111 H111       25.3359    3.6572  -10.0086 H         1 UNK         0.0947 
    112 H112       24.6040    2.2108  -11.9163 H         1 UNK         0.0806 
    113 H113       23.5362    2.0264  -10.5355 H         1 UNK         0.0806 
    114 H114       24.7340    0.7825  -10.8993 H         1 UNK         0.0806 
    115 H115       27.4670    0.9408   -9.2965 H         1 UNK         0.3000 
    116 H116       29.6324    2.1770  -10.8439 H         1 UNK         0.0850 
    117 H117       30.1644    0.0755  -12.0711 H         1 UNK         0.0810 
    118 H118       28.5751    0.6569  -12.5332 H         1 UNK         0.0810 
    119 H119       28.7266   -0.6990  -11.4156 H         1 UNK         0.0810 
    120 H120       29.1702    2.0996   -8.1027 H         1 UNK         0.3040 
    121 H121       30.6491   -0.0619   -6.8430 H         1 UNK         0.0766 
    122 H122       30.2620    1.4036   -4.7753 H         1 UNK         0.0812 
    123 H123       28.8122    0.9259   -5.6261 H         1 UNK         0.0812 
    124 H124       29.4517    2.5633   -5.8143 H         1 UNK         0.0812 
    125 H125       32.3407    0.5837   -5.1842 H         1 UNK         0.3205 
    126 H126       34.4232    1.0898   -4.6666 H         1 UNK         0.0754 
    127 H127       35.1969    3.4134   -4.8804 H         1 UNK         0.0769 
    128 H128       33.4969    3.4015   -4.4439 H         1 UNK         0.0769 
    129 H129       33.9821    3.7588   -6.1007 H         1 UNK         0.0769 
    130 H130       34.2115   -0.5914   -6.8059 H         1 UNK         0.2981 
    131 H131       36.0914    0.0735   -8.8879 H         1 UNK         0.0541 
    132 H132       36.7445   -0.8579   -5.6403 H         1 UNK         0.3459 
    133 H133       38.3415   -1.4875   -5.9535 H         1 UNK         0.3459 
    134 H134       35.7333   -2.3387   -9.5869 H         1 UNK         0.0612 
    135 H135       34.3128   -1.3476   -9.5529 H         1 UNK         0.0612 
    136 H136       32.0886   -2.6607   -8.7893 H         1 UNK         0.0624 
    137 H137       32.5673   -1.2927   -7.8207 H         1 UNK         0.0624 
@<TRIPOS>BOND
     1    1    2 1    
     2    1   72 1    
     3    1   73 1    
     4    1   74 1    
     5    2    3 2    
     6    2    4 am   BACKBONE|DICT|INTERRES
     7    4    5 1    
     8    4   75 1    
     9    5    6 1    
    10    5   35 1    
    11    5   76 1    
    12    6    7 1    
    13    6   77 1    
    14    6   78 1    
    15    7    8 1    
    16    8    9 1    
    17    8   79 1    
    18    8   80 1    
    19    9   10 ar   
    20    9   14 ar   
    21   10   11 ar   
    22   10   81 1    
    23   11   12 ar   
    24   11   71 1    
    25   12   13 ar   
    26   12   82 1    
    27   13   14 ar   
    28   13   15 1    
    29   14   83 1    
    30   15   16 1    
    31   15   84 1    
    32   15   85 1    
    33   16   17 1    
    34   17   18 1    
    35   17   86 1    
    36   17   87 1    
    37   18   19 1    
    38   18   37 1    
    39   18   88 1    
    40   19   20 am   BACKBONE|DICT|INTERRES
    41   19   89 1    
    42   20   21 2    
    43   20   22 1    
    44   22   23 1    
    45   22   24 1    
    46   22   90 1    
    47   23   91 1    
    48   23   92 1    
    49   23   93 1    
    50   24   25 am   BACKBONE|DICT|INTERRES
    51   24   94 1    
    52   25   26 2    
    53   25   27 1    
    54   27   28 1    
    55   27   29 1    
    56   27   95 1    
    57   28   96 1    
    58   28   97 1    
    59   28   98 1    
    60   29   30 am   BACKBONE|DICT|INTERRES
    61   29   99 1    
    62   30   31 2    
    63   30   32 1    
    64   32   33 1    
    65   32   34 1    
    66   32  100 1    
    67   33  101 1    
    68   33  102 1    
    69   33  103 1    
    70   34   35 am   BACKBONE|DICT|INTERRES
    71   34  104 1    
    72   35   36 2    
    73   37   38 2    
    74   37   39 am   BACKBONE|DICT|INTERRES
    75   39   40 1    
    76   39  105 1    
    77   40   41 1    
    78   40   42 1    
    79   40  106 1    
    80   41  107 1    
    81   41  108 1    
    82   41  109 1    
    83   42   43 2    
    84   42   44 am   BACKBONE|DICT|INTERRES
    85   44   45 1    
    86   44  110 1    
    87   45   46 1    
    88   45   47 1    
    89   45  111 1    
    90   46  112 1    
    91   46  113 1    
    92   46  114 1    
    93   47   48 2    
    94   47   49 am   BACKBONE|DICT|INTERRES
    95   49   50 1    
    96   49  115 1    
    97   50   51 1    
    98   50   52 1    
    99   50  116 1    
   100   51  117 1    
   101   51  118 1    
   102   51  119 1    
   103   52   53 2    
   104   52   54 am   BACKBONE|DICT|INTERRES
   105   54   55 1    
   106   54  120 1    
   107   55   56 1    
   108   55   57 1    
   109   55  121 1    
   110   56  122 1    
   111   56  123 1    
   112   56  124 1    
   113   57   58 2    
   114   57   59 am   BACKBONE|DICT|INTERRES
   115   59   60 1    
   116   59  125 1    
   117   60   61 1    
   118   60   62 1    
   119   60  126 1    
   120   61  127 1    
   121   61  128 1    
   122   61  129 1    
   123   62   63 2    
   124   62   64 am   BACKBONE|DICT|INTERRES
   125   64   65 1    
   126   64  130 1    
   127   65   66 1    
   128   65   69 1    
   129   65  131 1    
   130   66   67 am   BACKBONE|DICT|INTERRES
   131   66   68 2    
   132   67  132 1    
   133   67  133 1    
   134   69   70 1    
   135   69  134 1    
   136   69  135 1    
   137   70   71 1    
   138   71  136 1    
   139   71  137 1    
@<TRIPOS>SUBSTRUCTURE
     1 UNK         1 GROUP             0       ****    0 ROOT    
