@<TRIPOS>MOLECULE
3R137
137   139    1
SMALL
USER_CHARGES


@<TRIPOS>ATOM
      1 CA         23.2952   -6.1304   -2.6198 C.3       0 UNK        -0.2020 
      2 C          24.5029   -5.4274   -2.0191 C.2       0 UNK         0.4855 
      3 O          24.4427   -4.9713   -0.8767 O.2       0 UNK        -0.5197 
      4 N          25.5992   -5.3219   -2.7818 N.am      1 UNK        -0.4892 
      5 CA         26.8486   -4.6569   -2.3934 C.3       1 UNK         0.0835 
      6 C6         28.0402   -5.2248   -3.2067 C.3       12 UNK        -0.0855 
      7 S7         29.6659   -4.7684   -2.5086 S.3       12 UNK        -0.2931 
      8 C8         30.4022   -3.8493   -3.9000 C.3       12 UNK         0.0378 
      9 C9         31.2218   -2.6565   -3.4347 C.ar      12 UNK        -0.0802 
     10 C10        32.5800   -2.5500   -3.7511 C.ar      12 UNK        -0.0944 
     11 C11        33.3068   -1.4183   -3.3671 C.ar      12 UNK        -0.0787 
     12 C12        32.6669   -0.3910   -2.6657 C.ar      12 UNK        -0.0862 
     13 C13        31.3118   -0.4911   -2.3378 C.ar      12 UNK        -0.0733 
     14 C14        30.5990   -1.6294   -2.7217 C.ar      12 UNK        -0.0832 
     15 C15        30.6282    0.6192   -1.5518 C.3       12 UNK         0.0240 
     16 S16        29.8962    1.8850   -2.6394 S.3       12 UNK        -0.2522 
     17 C17        28.3487    1.0825   -3.1761 C.3       12 UNK        -0.0967 
     18 CA         28.1687    1.1070   -4.7173 C.3       5 UNK         0.0660 
     19 N          27.5199   -0.1100   -5.2189 N.am      5 UNK        -0.4015 
     20 C          27.2942   -0.3865   -6.5122 C.2       4 UNK         0.4946 
     21 O          27.6806    0.3153   -7.4451 O.2       4 UNK        -0.5353 
     22 CA         26.4389   -1.6241   -6.8203 C.3       4 UNK         0.0277 
     23 CB         27.3021   -2.8932   -6.8787 C.3       4 UNK        -0.1981 
     24 N          25.3539   -1.7897   -5.8503 N.am      4 UNK        -0.4209 
     25 C          24.2835   -0.9832   -5.7812 C.2       3 UNK         0.4942 
     26 O          24.0704   -0.0604   -6.5667 O.2       3 UNK        -0.5208 
     27 CA         23.3127   -1.2143   -4.6104 C.3       3 UNK         0.0250 
     28 CB         22.3481   -2.3699   -4.9224 C.3       3 UNK        -0.1990 
     29 N          24.0022   -1.4794   -3.3457 N.am      3 UNK        -0.4232 
     30 C          24.8158   -0.6147   -2.7224 C.2       2 UNK         0.4993 
     31 O          25.0314    0.5303   -3.1170 O.2       2 UNK        -0.5286 
     32 CA         25.5600   -1.1324   -1.4805 C.3       2 UNK         0.0209 
     33 CB         24.7325   -0.8757   -0.2118 C.3       2 UNK        -0.1931 
     34 N          25.9081   -2.5552   -1.5573 N.am      2 UNK        -0.4546 
     35 C          26.6839   -3.1224   -2.4919 C.2       1 UNK         0.5154 
     36 O          27.1862   -2.4903   -3.4247 O.2       1 UNK        -0.5181 
     37 C          27.4213    2.3794   -5.1719 C.2       5 UNK         0.5014 
     38 O          28.0343    3.2715   -5.7596 O.2       5 UNK        -0.5248 
     39 N          26.1008    2.4134   -4.9338 N.am      6 UNK        -0.4434 
     40 CA         25.1941    3.4944   -5.3320 C.3       6 UNK         0.0363 
     41 CB         23.8003    3.2329   -4.7397 C.3       6 UNK        -0.1936 
     42 C          25.1038    3.6928   -6.8553 C.2       6 UNK         0.5081 
     43 O          24.9973    4.8315   -7.3108 O.2       6 UNK        -0.5248 
     44 N          25.1756    2.5923   -7.6158 N.am      7 UNK        -0.4718 
     45 CA         25.2217    2.5899   -9.0811 C.3       7 UNK         0.0273 
     46 CB         24.8291    1.1914   -9.5868 C.3       7 UNK        -0.1935 
     47 C          26.5879    3.0039   -9.6646 C.2       7 UNK         0.5018 
     48 O          26.6762    3.1842  -10.8800 O.2       7 UNK        -0.5186 
     49 N          27.6199    3.1228   -8.8133 N.am      8 UNK        -0.4240 
     50 CA         29.0301    3.3626   -9.1453 C.3       8 UNK         0.0235 
     51 CB         29.2291    4.7585   -9.7745 C.3       8 UNK        -0.2000 
     52 C          29.6409    2.2201   -9.9827 C.2       8 UNK         0.4941 
     53 O          30.4338    2.4727  -10.8928 O.2       8 UNK        -0.5273 
     54 N          29.2503    0.9842   -9.6538 N.am      9 UNK        -0.4262 
     55 CA         29.7401   -0.2624  -10.2328 C.3       9 UNK         0.0264 
     56 CB         28.5185   -1.1299  -10.5992 C.3       9 UNK        -0.1955 
     57 C          30.6850   -0.9567   -9.2325 C.2       9 UNK         0.5031 
     58 O          31.1798   -0.3137   -8.3034 O.2       9 UNK        -0.5390 
     59 N          30.9222   -2.2590   -9.4465 N.am      10 UNK        -0.4204 
     60 CA         31.8217   -3.1321   -8.6857 C.3       10 UNK         0.0237 
     61 CB         31.3616   -3.2923   -7.2176 C.3       10 UNK        -0.1985 
     62 C          33.2921   -2.7077   -8.8574 C.2       10 UNK         0.4970 
     63 O          33.8130   -2.8359   -9.9670 O.2       10 UNK        -0.4914 
     64 N          33.9413   -2.2587   -7.7764 N.am      11 UNK        -0.4285 
     65 CA         35.3513   -1.8456   -7.7526 C.3       11 UNK         0.1007 
     66 C          35.6699   -0.5882   -8.6143 C.2       11 UNK         0.5703 
     67 N          36.9276   -0.4075   -8.9967 N.am      11 UNK        -0.7361 
     68 O          34.8071    0.2327   -8.9199 O.2       11 UNK        -0.4986 
     69 C69        35.8810   -1.7256   -6.2985 C.3       12 UNK        -0.0947 
     70 S70        35.0355   -0.4540   -5.2923 S.3       12 UNK        -0.2240 
     71 C71        34.7853   -1.3018   -3.7006 C.3       12 UNK         0.0194 
     72 H72        23.4883   -6.4817   -3.6332 H         1 UNK         0.0906 
     73 H73        23.0212   -6.9906   -2.0095 H         1 UNK         0.0906 
     74 H74        22.4436   -5.4513   -2.6527 H         1 UNK         0.0906 
     75 H75        25.5837   -5.7046   -3.7170 H         1 UNK         0.3140 
     76 H76        27.0391   -4.8887   -1.3425 H         1 UNK         0.1085 
     77 H77        27.9657   -4.9444   -4.2583 H         1 UNK         0.0836 
     78 H78        27.9978   -6.3152   -3.1964 H         1 UNK         0.0836 
     79 H79        29.6255   -3.4699   -4.5628 H         1 UNK         0.0731 
     80 H80        31.0063   -4.5385   -4.4911 H         1 UNK         0.0731 
     81 H81        33.0706   -3.3402   -4.3026 H         1 UNK         0.1312 
     82 H82        33.2260    0.4874   -2.3727 H         1 UNK         0.1406 
     83 H83        29.5541   -1.7297   -2.4678 H         1 UNK         0.1631 
     84 H84        31.3543    1.1039   -0.8973 H         1 UNK         0.0717 
     85 H85        29.8615    0.2072   -0.8935 H         1 UNK         0.0717 
     86 H86        28.3475    0.0559   -2.8186 H         1 UNK         0.0934 
     87 H87        27.5147    1.5563   -2.6542 H         1 UNK         0.0934 
     88 H88        29.1554    1.1233   -5.1861 H         1 UNK         0.0739 
     89 H89        27.2099   -0.7848   -4.5280 H         1 UNK         0.3093 
     90 H90        25.9914   -1.4796   -7.8058 H         1 UNK         0.0818 
     91 H91        26.7110   -3.7628   -7.1659 H         1 UNK         0.0819 
     92 H92        28.0997   -2.7863   -7.6146 H         1 UNK         0.0819 
     93 H93        27.7718   -3.1079   -5.9208 H         1 UNK         0.0819 
     94 H94        25.4866   -2.4879   -5.1329 H         1 UNK         0.3041 
     95 H95        22.7259   -0.3018   -4.4842 H         1 UNK         0.0784 
     96 H96        21.8118   -2.1877   -5.8549 H         1 UNK         0.0793 
     97 H97        22.8718   -3.3209   -5.0281 H         1 UNK         0.0793 
     98 H98        21.5995   -2.4843   -4.1381 H         1 UNK         0.0793 
     99 H99        23.8805   -2.3943   -2.9376 H         1 UNK         0.3024 
    100 H100       26.4906   -0.5684   -1.3993 H         1 UNK         0.1171 
    101 H101       25.2883   -1.1475    0.6858 H         1 UNK         0.0786 
    102 H102       24.4722    0.1802   -0.1222 H         1 UNK         0.0786 
    103 H103       23.8009   -1.4431   -0.2144 H         1 UNK         0.0786 
    104 H104       25.4625   -3.1751   -0.8882 H         1 UNK         0.2977 
    105 H105       25.6844    1.6501   -4.4008 H         1 UNK         0.3127 
    106 H106       25.5806    4.4210   -4.9027 H         1 UNK         0.0770 
    107 H107       23.3749    2.2994   -5.1105 H         1 UNK         0.0814 
    108 H108       23.1078    4.0347   -4.9991 H         1 UNK         0.0814 
    109 H109       23.8364    3.1737   -3.6517 H         1 UNK         0.0814 
    110 H110       25.1971    1.6866   -7.1597 H         1 UNK         0.2983 
    111 H111       24.4838    3.3058   -9.4498 H         1 UNK         0.0947 
    112 H112       25.5475    0.4350   -9.2704 H         1 UNK         0.0806 
    113 H113       24.7881    1.1650  -10.6765 H         1 UNK         0.0806 
    114 H114       23.8462    0.8962   -9.2190 H         1 UNK         0.0806 
    115 H115       27.4395    2.9393   -7.8326 H         1 UNK         0.3000 
    116 H116       29.5651    3.3532   -8.1944 H         1 UNK         0.0850 
    117 H117       28.7929    5.5393   -9.1516 H         1 UNK         0.0810 
    118 H118       28.7783    4.8266  -10.7648 H         1 UNK         0.0810 
    119 H119       30.2896    4.9876   -9.8855 H         1 UNK         0.0810 
    120 H120       28.6475    0.8672   -8.8382 H         1 UNK         0.3040 
    121 H121       30.3110   -0.0597  -11.1410 H         1 UNK         0.0766 
    122 H122       28.8058   -2.0206  -11.1583 H         1 UNK         0.0812 
    123 H123       27.8206   -0.5763  -11.2281 H         1 UNK         0.0812 
    124 H124       27.9731   -1.4540   -9.7124 H         1 UNK         0.0812 
    125 H125       30.4992   -2.6846  -10.2593 H         1 UNK         0.3205 
    126 H126       31.7459   -4.1175   -9.1484 H         1 UNK         0.0754 
    127 H127       31.3582   -2.3496   -6.6694 H         1 UNK         0.0769 
    128 H128       32.0114   -3.9849   -6.6815 H         1 UNK         0.0769 
    129 H129       30.3538   -3.7033   -7.1693 H         1 UNK         0.0769 
    130 H130       33.4222   -2.1065   -6.9249 H         1 UNK         0.2981 
    131 H131       35.9030   -2.6662   -8.2160 H         1 UNK         0.0541 
    132 H132       37.1592    0.4049   -9.5467 H         1 UNK         0.3459 
    133 H133       37.6495   -1.0658   -8.7478 H         1 UNK         0.3459 
    134 H134       35.7874   -2.6981   -5.8143 H         1 UNK         0.0612 
    135 H135       36.9494   -1.5034   -6.2976 H         1 UNK         0.0612 
    136 H136       35.2495   -2.2883   -3.6973 H         1 UNK         0.0624 
    137 H137       35.2962   -0.7327   -2.9223 H         1 UNK         0.0624 
@<TRIPOS>BOND
     1    1    2 1    
     2    1   72 1    
     3    1   73 1    
     4    1   74 1    
     5    2    3 2    
     6    2    4 am   BACKBONE|DICT|INTERRES
     7    4    5 1    
     8    4   75 1    
     9    5    6 1    
    10    5   35 1    
    11    5   76 1    
    12    6    7 1    
    13    6   77 1    
    14    6   78 1    
    15    7    8 1    
    16    8    9 1    
    17    8   79 1    
    18    8   80 1    
    19    9   10 ar   
    20    9   14 ar   
    21   10   11 ar   
    22   10   81 1    
    23   11   12 ar   
    24   11   71 1    
    25   12   13 ar   
    26   12   82 1    
    27   13   14 ar   
    28   13   15 1    
    29   14   83 1    
    30   15   16 1    
    31   15   84 1    
    32   15   85 1    
    33   16   17 1    
    34   17   18 1    
    35   17   86 1    
    36   17   87 1    
    37   18   19 1    
    38   18   37 1    
    39   18   88 1    
    40   19   20 am   BACKBONE|DICT|INTERRES
    41   19   89 1    
    42   20   21 2    
    43   20   22 1    
    44   22   23 1    
    45   22   24 1    
    46   22   90 1    
    47   23   91 1    
    48   23   92 1    
    49   23   93 1    
    50   24   25 am   BACKBONE|DICT|INTERRES
    51   24   94 1    
    52   25   26 2    
    53   25   27 1    
    54   27   28 1    
    55   27   29 1    
    56   27   95 1    
    57   28   96 1    
    58   28   97 1    
    59   28   98 1    
    60   29   30 am   BACKBONE|DICT|INTERRES
    61   29   99 1    
    62   30   31 2    
    63   30   32 1    
    64   32   33 1    
    65   32   34 1    
    66   32  100 1    
    67   33  101 1    
    68   33  102 1    
    69   33  103 1    
    70   34   35 am   BACKBONE|DICT|INTERRES
    71   34  104 1    
    72   35   36 2    
    73   37   38 2    
    74   37   39 am   BACKBONE|DICT|INTERRES
    75   39   40 1    
    76   39  105 1    
    77   40   41 1    
    78   40   42 1    
    79   40  106 1    
    80   41  107 1    
    81   41  108 1    
    82   41  109 1    
    83   42   43 2    
    84   42   44 am   BACKBONE|DICT|INTERRES
    85   44   45 1    
    86   44  110 1    
    87   45   46 1    
    88   45   47 1    
    89   45  111 1    
    90   46  112 1    
    91   46  113 1    
    92   46  114 1    
    93   47   48 2    
    94   47   49 am   BACKBONE|DICT|INTERRES
    95   49   50 1    
    96   49  115 1    
    97   50   51 1    
    98   50   52 1    
    99   50  116 1    
   100   51  117 1    
   101   51  118 1    
   102   51  119 1    
   103   52   53 2    
   104   52   54 am   BACKBONE|DICT|INTERRES
   105   54   55 1    
   106   54  120 1    
   107   55   56 1    
   108   55   57 1    
   109   55  121 1    
   110   56  122 1    
   111   56  123 1    
   112   56  124 1    
   113   57   58 2    
   114   57   59 am   BACKBONE|DICT|INTERRES
   115   59   60 1    
   116   59  125 1    
   117   60   61 1    
   118   60   62 1    
   119   60  126 1    
   120   61  127 1    
   121   61  128 1    
   122   61  129 1    
   123   62   63 2    
   124   62   64 am   BACKBONE|DICT|INTERRES
   125   64   65 1    
   126   64  130 1    
   127   65   66 1    
   128   65   69 1    
   129   65  131 1    
   130   66   67 am   BACKBONE|DICT|INTERRES
   131   66   68 2    
   132   67  132 1    
   133   67  133 1    
   134   69   70 1    
   135   69  134 1    
   136   69  135 1    
   137   70   71 1    
   138   71  136 1    
   139   71  137 1    
@<TRIPOS>SUBSTRUCTURE
     1 UNK         1 GROUP             0       ****    0 ROOT    
