@<TRIPOS>MOLECULE
3R137
137   139    1
SMALL
USER_CHARGES


@<TRIPOS>ATOM
      1 CA         26.7874   -1.2083    3.1014 C.3       0 UNK        -0.2020 
      2 C          27.1286   -1.4941    1.6467 C.2       0 UNK         0.4855 
      3 O          26.6647   -0.7804    0.7571 O.2       0 UNK        -0.5197 
      4 N          27.9435   -2.5262    1.3978 N.am      1 UNK        -0.4892 
      5 CA         28.3447   -2.9705    0.0594 C.3       1 UNK         0.0835 
      6 C6         29.5641   -3.9274    0.1024 C.3       12 UNK        -0.0855 
      7 S7         31.0036   -3.2091    0.9670 S.3       12 UNK        -0.2931 
      8 C8         32.2194   -3.0309   -0.3850 C.3       12 UNK         0.0378 
      9 C9         31.8528   -1.9996   -1.4525 C.ar      12 UNK        -0.0802 
     10 C10        32.2986   -2.1914   -2.7628 C.ar      12 UNK        -0.0944 
     11 C11        32.0242   -1.2497   -3.7582 C.ar      12 UNK        -0.0787 
     12 C12        31.2841   -0.1071   -3.4404 C.ar      12 UNK        -0.0862 
     13 C13        30.8159    0.0978   -2.1343 C.ar      12 UNK        -0.0733 
     14 C14        31.1238   -0.8443   -1.1480 C.ar      12 UNK        -0.0832 
     15 C15        29.9990    1.3250   -1.7236 C.3       12 UNK         0.0240 
     16 S16        29.1508    2.2141   -3.0733 S.3       12 UNK        -0.2522 
     17 C17        28.0037    0.9468   -3.7148 C.3       12 UNK        -0.0967 
     18 CA         27.9696    0.9578   -5.2629 C.3       5 UNK         0.0660 
     19 N          27.5616   -0.3304   -5.8268 N.am      5 UNK        -0.4015 
     20 C          27.6699   -0.6584   -7.1250 C.2       4 UNK         0.4946 
     21 O          28.1968    0.0678   -7.9673 O.2       4 UNK        -0.5353 
     22 CA         27.0540   -1.9945   -7.5834 C.3       4 UNK         0.0277 
     23 CB         28.1050   -3.1125   -7.5287 C.3       4 UNK        -0.1981 
     24 N          25.8835   -2.3994   -6.8038 N.am      4 UNK        -0.4209 
     25 C          24.7670   -1.6744   -6.6456 C.2       3 UNK         0.4942 
     26 O          24.5366   -0.6377   -7.2671 O.2       3 UNK        -0.5208 
     27 CA         23.7734   -2.1392   -5.5623 C.3       3 UNK         0.0250 
     28 CB         22.5730   -2.8482   -6.2089 C.3       3 UNK        -0.1990 
     29 N          24.3479   -3.0074   -4.5214 N.am      3 UNK        -0.4232 
     30 C          25.3954   -2.7110   -3.7366 C.2       2 UNK         0.4993 
     31 O          26.0351   -1.6573   -3.8136 O.2       2 UNK        -0.5286 
     32 CA         25.8406   -3.7987   -2.7522 C.3       2 UNK         0.0209 
     33 CB         26.3640   -5.0456   -3.4927 C.3       2 UNK        -0.1931 
     34 N          26.9010   -3.2629   -1.9027 N.am      2 UNK        -0.4546 
     35 C          27.1586   -3.6517   -0.6513 C.2       1 UNK         0.5154 
     36 O          26.5220   -4.5305   -0.0633 O.2       1 UNK        -0.5181 
     37 C          27.0985    2.1066   -5.8072 C.2       5 UNK         0.5014 
     38 O          27.6419    3.1050   -6.2832 O.2       5 UNK        -0.5248 
     39 N          25.7697    1.9147   -5.7839 N.am      6 UNK        -0.4434 
     40 CA         24.7706    2.8531   -6.3096 C.3       6 UNK         0.0363 
     41 CB         23.3621    2.3835   -5.9116 C.3       6 UNK        -0.1936 
     42 C          24.8679    3.0606   -7.8322 C.2       6 UNK         0.5081 
     43 O          24.5192    4.1353   -8.3193 O.2       6 UNK        -0.5248 
     44 N          25.4011    2.0611   -8.5466 N.am      7 UNK        -0.4718 
     45 CA         25.7740    2.1186   -9.9631 C.3       7 UNK         0.0273 
     46 CB         25.7503    0.6899  -10.5341 C.3       7 UNK        -0.1935 
     47 C          27.1293    2.8207  -10.2199 C.2       7 UNK         0.5018 
     48 O          27.7010    2.6368  -11.2947 O.2       7 UNK        -0.5186 
     49 N          27.6095    3.6141   -9.2496 N.am      8 UNK        -0.4240 
     50 CA         28.8537    4.3905   -9.2342 C.3       8 UNK         0.0235 
     51 CB         28.9095    5.4082  -10.3951 C.3       8 UNK        -0.2000 
     52 C          30.0978    3.4915   -9.1394 C.2       8 UNK         0.4941 
     53 O          31.0296    3.6400   -9.9325 O.2       8 UNK        -0.5273 
     54 N          30.0828    2.5880   -8.1472 N.am      9 UNK        -0.4262 
     55 CA         31.1417    1.6286   -7.8015 C.3       9 UNK         0.0264 
     56 CB         32.3713    2.3589   -7.2218 C.3       9 UNK        -0.1955 
     57 C          31.4936    0.6758   -8.9594 C.2       9 UNK         0.5031 
     58 O          32.6706    0.4337   -9.2350 O.2       9 UNK        -0.5390 
     59 N          30.4602    0.1136   -9.5970 N.am      10 UNK        -0.4204 
     60 CA         30.5473   -0.8345  -10.7122 C.3       10 UNK         0.0237 
     61 CB         29.2466   -0.7511  -11.5319 C.3       10 UNK        -0.1985 
     62 C          30.8485   -2.2709  -10.2359 C.2       10 UNK         0.4970 
     63 O          30.2294   -3.2227  -10.7144 O.2       10 UNK        -0.4914 
     64 N          31.7736   -2.4006   -9.2799 N.am      11 UNK        -0.4285 
     65 CA         32.1585   -3.6610   -8.6300 C.3       11 UNK         0.1007 
     66 C          33.1317   -4.5431   -9.4655 C.2       11 UNK         0.5703 
     67 N          33.6804   -4.0663  -10.5771 N.am      11 UNK        -0.7361 
     68 O          33.3858   -5.6891   -9.1023 O.2       11 UNK        -0.4986 
     69 C69        32.7106   -3.4090   -7.2031 C.3       12 UNK        -0.0947 
     70 S70        31.4924   -2.6112   -6.1000 S.3       12 UNK        -0.2240 
     71 C71        32.5545   -1.4680   -5.1669 C.3       12 UNK         0.0194 
     72 H72        27.2780   -1.9057    3.7804 H         1 UNK         0.0906 
     73 H73        27.0997   -0.1991    3.3686 H         1 UNK         0.0906 
     74 H74        25.7114   -1.2845    3.2561 H         1 UNK         0.0906 
     75 H75        28.2923   -3.0865    2.1624 H         1 UNK         0.3140 
     76 H76        28.6263   -2.0852   -0.5145 H         1 UNK         0.1085 
     77 H77        29.8573   -4.2116   -0.9104 H         1 UNK         0.0836 
     78 H78        29.3034   -4.8580    0.6109 H         1 UNK         0.0836 
     79 H79        32.3731   -4.0103   -0.8412 H         1 UNK         0.0731 
     80 H80        33.1768   -2.7428    0.0508 H         1 UNK         0.0731 
     81 H81        32.8750   -3.0726   -3.0111 H         1 UNK         0.1312 
     82 H82        31.0825    0.6196   -4.2140 H         1 UNK         0.1406 
     83 H83        30.7917   -0.6720   -0.1333 H         1 UNK         0.1631 
     84 H84        30.6649    2.0265   -1.2194 H         1 UNK         0.0717 
     85 H85        29.2448    1.0342   -0.9901 H         1 UNK         0.0717 
     86 H86        28.3327   -0.0312   -3.3611 H         1 UNK         0.0934 
     87 H87        27.0128    1.0941   -3.2803 H         1 UNK         0.0934 
     88 H88        28.9868    1.1299   -5.6141 H         1 UNK         0.0739 
     89 H89        27.0782   -0.9612   -5.1910 H         1 UNK         0.3093 
     90 H90        26.7350   -1.8707   -8.6199 H         1 UNK         0.0818 
     91 H91        28.9993   -2.8328   -8.0843 H         1 UNK         0.0819 
     92 H92        27.7291   -4.0360   -7.9692 H         1 UNK         0.0819 
     93 H93        28.4159   -3.3275   -6.5054 H         1 UNK         0.0819 
     94 H94        25.9733   -3.2451   -6.2609 H         1 UNK         0.3041 
     95 H95        23.4092   -1.2387   -5.0636 H         1 UNK         0.0784 
     96 H96        22.1084   -2.2164   -6.9677 H         1 UNK         0.0793 
     97 H97        22.8675   -3.7787   -6.6958 H         1 UNK         0.0793 
     98 H98        21.8041   -3.0816   -5.4721 H         1 UNK         0.0793 
     99 H99        23.8935   -3.9008   -4.3942 H         1 UNK         0.3024 
    100 H100       24.9778   -4.0657   -2.1371 H         1 UNK         0.1171 
    101 H101       26.6891   -5.8142   -2.7910 H         1 UNK         0.0786 
    102 H102       25.5922   -5.4951   -4.1184 H         1 UNK         0.0786 
    103 H103       27.2113   -4.8054   -4.1365 H         1 UNK         0.0786 
    104 H104       27.3943   -2.4762   -2.3062 H         1 UNK         0.2977 
    105 H105       25.4165    1.0394   -5.4245 H         1 UNK         0.3127 
    106 H106       24.9519    3.8217   -5.8389 H         1 UNK         0.0770 
    107 H107       23.1152    1.4182   -6.3541 H         1 UNK         0.0814 
    108 H108       22.6069    3.0955   -6.2472 H         1 UNK         0.0814 
    109 H109       23.2625    2.2941   -4.8298 H         1 UNK         0.0814 
    110 H110       25.6086    1.1960   -8.0622 H         1 UNK         0.2983 
    111 H111       25.0183    2.7015  -10.4940 H         1 UNK         0.0947 
    112 H112       26.5156    0.0666  -10.0750 H         1 UNK         0.0806 
    113 H113       25.9303    0.6895  -11.6098 H         1 UNK         0.0806 
    114 H114       24.7851    0.2111  -10.3678 H         1 UNK         0.0806 
    115 H115       27.0863    3.6427   -8.3833 H         1 UNK         0.3000 
    116 H116       28.8314    4.9660   -8.3072 H         1 UNK         0.0850 
    117 H117       29.7697    6.0700  -10.2883 H         1 UNK         0.0810 
    118 H118       28.0186    6.0357  -10.4165 H         1 UNK         0.0810 
    119 H119       29.0000    4.9188  -11.3652 H         1 UNK         0.0810 
    120 H120       29.2464    2.5484   -7.5744 H         1 UNK         0.3040 
    121 H121       30.7442    0.9903   -7.0131 H         1 UNK         0.0766 
    122 H122       33.1235    1.6490   -6.8764 H         1 UNK         0.0812 
    123 H123       32.0973    2.9794   -6.3686 H         1 UNK         0.0812 
    124 H124       32.8483    2.9993   -7.9644 H         1 UNK         0.0812 
    125 H125       29.5320    0.2708   -9.2049 H         1 UNK         0.3205 
    126 H126       31.3714   -0.5322  -11.3615 H         1 UNK         0.0754 
    127 H127       29.3081   -1.3655  -12.4310 H         1 UNK         0.0769 
    128 H128       29.0436    0.2707  -11.8532 H         1 UNK         0.0769 
    129 H129       28.3890   -1.0992  -10.9557 H         1 UNK         0.0769 
    130 H130       32.2644   -1.5667   -8.9792 H         1 UNK         0.2981 
    131 H131       31.2526   -4.2604   -8.5197 H         1 UNK         0.0541 
    132 H132       34.3044   -4.6514  -11.1102 H         1 UNK         0.3459 
    133 H133       33.4795   -3.1288  -10.8849 H         1 UNK         0.3459 
    134 H134       33.0047   -4.3478   -6.7302 H         1 UNK         0.0612 
    135 H135       33.6133   -2.7981   -7.2594 H         1 UNK         0.0612 
    136 H136       33.5678   -1.8676   -5.1035 H         1 UNK         0.0624 
    137 H137       32.6280   -0.5241   -5.7081 H         1 UNK         0.0624 
@<TRIPOS>BOND
     1    1    2 1    
     2    1   72 1    
     3    1   73 1    
     4    1   74 1    
     5    2    3 2    
     6    2    4 am   BACKBONE|DICT|INTERRES
     7    4    5 1    
     8    4   75 1    
     9    5    6 1    
    10    5   35 1    
    11    5   76 1    
    12    6    7 1    
    13    6   77 1    
    14    6   78 1    
    15    7    8 1    
    16    8    9 1    
    17    8   79 1    
    18    8   80 1    
    19    9   10 ar   
    20    9   14 ar   
    21   10   11 ar   
    22   10   81 1    
    23   11   12 ar   
    24   11   71 1    
    25   12   13 ar   
    26   12   82 1    
    27   13   14 ar   
    28   13   15 1    
    29   14   83 1    
    30   15   16 1    
    31   15   84 1    
    32   15   85 1    
    33   16   17 1    
    34   17   18 1    
    35   17   86 1    
    36   17   87 1    
    37   18   19 1    
    38   18   37 1    
    39   18   88 1    
    40   19   20 am   BACKBONE|DICT|INTERRES
    41   19   89 1    
    42   20   21 2    
    43   20   22 1    
    44   22   23 1    
    45   22   24 1    
    46   22   90 1    
    47   23   91 1    
    48   23   92 1    
    49   23   93 1    
    50   24   25 am   BACKBONE|DICT|INTERRES
    51   24   94 1    
    52   25   26 2    
    53   25   27 1    
    54   27   28 1    
    55   27   29 1    
    56   27   95 1    
    57   28   96 1    
    58   28   97 1    
    59   28   98 1    
    60   29   30 am   BACKBONE|DICT|INTERRES
    61   29   99 1    
    62   30   31 2    
    63   30   32 1    
    64   32   33 1    
    65   32   34 1    
    66   32  100 1    
    67   33  101 1    
    68   33  102 1    
    69   33  103 1    
    70   34   35 am   BACKBONE|DICT|INTERRES
    71   34  104 1    
    72   35   36 2    
    73   37   38 2    
    74   37   39 am   BACKBONE|DICT|INTERRES
    75   39   40 1    
    76   39  105 1    
    77   40   41 1    
    78   40   42 1    
    79   40  106 1    
    80   41  107 1    
    81   41  108 1    
    82   41  109 1    
    83   42   43 2    
    84   42   44 am   BACKBONE|DICT|INTERRES
    85   44   45 1    
    86   44  110 1    
    87   45   46 1    
    88   45   47 1    
    89   45  111 1    
    90   46  112 1    
    91   46  113 1    
    92   46  114 1    
    93   47   48 2    
    94   47   49 am   BACKBONE|DICT|INTERRES
    95   49   50 1    
    96   49  115 1    
    97   50   51 1    
    98   50   52 1    
    99   50  116 1    
   100   51  117 1    
   101   51  118 1    
   102   51  119 1    
   103   52   53 2    
   104   52   54 am   BACKBONE|DICT|INTERRES
   105   54   55 1    
   106   54  120 1    
   107   55   56 1    
   108   55   57 1    
   109   55  121 1    
   110   56  122 1    
   111   56  123 1    
   112   56  124 1    
   113   57   58 2    
   114   57   59 am   BACKBONE|DICT|INTERRES
   115   59   60 1    
   116   59  125 1    
   117   60   61 1    
   118   60   62 1    
   119   60  126 1    
   120   61  127 1    
   121   61  128 1    
   122   61  129 1    
   123   62   63 2    
   124   62   64 am   BACKBONE|DICT|INTERRES
   125   64   65 1    
   126   64  130 1    
   127   65   66 1    
   128   65   69 1    
   129   65  131 1    
   130   66   67 am   BACKBONE|DICT|INTERRES
   131   66   68 2    
   132   67  132 1    
   133   67  133 1    
   134   69   70 1    
   135   69  134 1    
   136   69  135 1    
   137   70   71 1    
   138   71  136 1    
   139   71  137 1    
@<TRIPOS>SUBSTRUCTURE
     1 UNK         1 GROUP             0       ****    0 ROOT    
