@<TRIPOS>MOLECULE
3R137
137   139    1
SMALL
USER_CHARGES


@<TRIPOS>ATOM
      1 CA         28.2853   -2.0445    3.3256 C.3       0 UNK        -0.2020 
      2 C          28.6412   -1.1990    2.1120 C.2       0 UNK         0.4855 
      3 O          28.6611    0.0282    2.2064 O.2       0 UNK        -0.5197 
      4 N          28.9290   -1.8477    0.9766 N.am      1 UNK        -0.4892 
      5 CA         29.2368   -1.2150   -0.3120 C.3       1 UNK         0.0835 
      6 C6         29.8612   -2.2242   -1.3097 C.3       12 UNK        -0.0855 
      7 S7         28.8898   -3.7610   -1.5159 S.3       12 UNK        -0.2931 
      8 C8         30.1507   -4.8856   -2.1843 C.3       12 UNK         0.0378 
      9 C9         30.5159   -4.5203   -3.6141 C.ar      12 UNK        -0.0802 
     10 C10        31.7114   -3.8513   -3.8922 C.ar      12 UNK        -0.0944 
     11 C11        32.0655   -3.5546   -5.2109 C.ar      12 UNK        -0.0787 
     12 C12        31.1982   -3.9145   -6.2478 C.ar      12 UNK        -0.0862 
     13 C13        29.9850   -4.5610   -5.9871 C.ar      12 UNK        -0.0733 
     14 C14        29.6615   -4.8758   -4.6616 C.ar      12 UNK        -0.0832 
     15 C15        29.0928   -4.9350   -7.1739 C.3       12 UNK         0.0240 
     16 S16        27.3614   -5.3969   -6.7960 S.3       12 UNK        -0.2522 
     17 C17        26.6448   -3.8851   -6.0636 C.3       12 UNK        -0.0967 
     18 CA         26.3875   -2.7527   -7.0979 C.3       5 UNK         0.0660 
     19 N          25.0859   -2.0971   -6.9044 N.am      5 UNK        -0.4015 
     20 C          24.6006   -1.0882   -7.6458 C.2       4 UNK         0.4946 
     21 O          25.2222   -0.5449   -8.5568 O.2       4 UNK        -0.5353 
     22 CA         23.1917   -0.5636   -7.3276 C.3       4 UNK         0.0277 
     23 CB         22.2224   -0.9504   -8.4567 C.3       4 UNK        -0.1981 
     24 N          22.6413   -1.0335   -6.0529 N.am      4 UNK        -0.4209 
     25 C          22.9179   -0.5969   -4.8155 C.2       3 UNK         0.4942 
     26 O          22.3311   -1.0648   -3.8391 O.2       3 UNK        -0.5208 
     27 CA         23.9563    0.5288   -4.5936 C.3       3 UNK         0.0250 
     28 CB         23.3037    1.9157   -4.7349 C.3       3 UNK        -0.1990 
     29 N          24.5178    0.4267   -3.2469 N.am      3 UNK        -0.4232 
     30 C          25.4202   -0.4819   -2.8585 C.2       2 UNK         0.4993 
     31 O          26.0457   -1.2103   -3.6364 O.2       2 UNK        -0.5286 
     32 CA         25.5706   -0.6328   -1.3346 C.3       2 UNK         0.0209 
     33 CB         24.4705   -1.5562   -0.7843 C.3       2 UNK        -0.1931 
     34 N          26.8664   -1.1691   -0.9266 N.am      2 UNK        -0.4546 
     35 C          28.0121   -0.4784   -0.8976 C.2       1 UNK         0.5154 
     36 O          28.1111    0.6992   -1.2454 O.2       1 UNK        -0.5181 
     37 C          27.5506   -1.7440   -7.1209 C.2       5 UNK         0.5014 
     38 O          28.2417   -1.6310   -8.1349 O.2       5 UNK        -0.5248 
     39 N          27.7086   -0.9917   -6.0228 N.am      6 UNK        -0.4434 
     40 CA         28.7673    0.0065   -5.8780 C.3       6 UNK         0.0363 
     41 CB         28.8470    0.4621   -4.4179 C.3       6 UNK        -0.1936 
     42 C          28.6039    1.2212   -6.8005 C.2       6 UNK         0.5081 
     43 O          29.6089    1.8429   -7.1393 O.2       6 UNK        -0.5248 
     44 N          27.3644    1.5347   -7.1991 N.am      7 UNK        -0.4718 
     45 CA         27.0581    2.6036   -8.1494 C.3       7 UNK         0.0273 
     46 CB         25.5643    2.9608   -8.0722 C.3       7 UNK        -0.1935 
     47 C          27.4682    2.2199   -9.5796 C.2       7 UNK         0.5018 
     48 O          28.1095    3.0211  -10.2593 O.2       7 UNK        -0.5186 
     49 N          27.1173    0.9949   -9.9961 N.am      8 UNK        -0.4240 
     50 CA         27.4545    0.4284  -11.3023 C.3       8 UNK         0.0235 
     51 CB         26.6324   -0.8499  -11.5339 C.3       8 UNK        -0.2000 
     52 C          28.9560    0.1420  -11.4550 C.2       8 UNK         0.4941 
     53 O          29.5283    0.4623  -12.4975 O.2       8 UNK        -0.5273 
     54 N          29.5671   -0.4486  -10.4189 N.am      9 UNK        -0.4262 
     55 CA         30.9880   -0.8064  -10.3984 C.3       9 UNK         0.0264 
     56 CB         31.1950   -1.9394   -9.3842 C.3       9 UNK        -0.1955 
     57 C          31.9273    0.3738  -10.0862 C.2       9 UNK         0.5031 
     58 O          33.1345    0.2334  -10.2875 O.2       9 UNK        -0.5390 
     59 N          31.3737    1.4941   -9.5961 N.am      10 UNK        -0.4204 
     60 CA         32.0674    2.6991   -9.1214 C.3       10 UNK         0.0237 
     61 CB         32.8116    3.4099  -10.2726 C.3       10 UNK        -0.1985 
     62 C          32.9590    2.4189   -7.8934 C.2       10 UNK         0.4970 
     63 O          34.0854    2.9141   -7.8176 O.2       10 UNK        -0.4914 
     64 N          32.4237    1.6312   -6.9534 N.am      11 UNK        -0.4285 
     65 CA         33.0524    1.2887   -5.6669 C.3       11 UNK         0.1007 
     66 C          32.6948    2.2869   -4.5294 C.2       11 UNK         0.5703 
     67 N          31.7429    3.1955   -4.7141 N.am      11 UNK        -0.7361 
     68 O          33.3031    2.2446   -3.4629 O.2       11 UNK        -0.4986 
     69 C69        32.7516   -0.1742   -5.2384 C.3       12 UNK        -0.0947 
     70 S70        33.2871   -1.3831   -6.4918 S.3       12 UNK        -0.2240 
     71 C71        33.4165   -2.9162   -5.5177 C.3       12 UNK         0.0194 
     72 H72        28.3155   -3.1111    3.1037 H         1 UNK         0.0906 
     73 H73        28.9842   -1.8477    4.1382 H         1 UNK         0.0906 
     74 H74        27.2818   -1.7990    3.6722 H         1 UNK         0.0906 
     75 H75        28.8941   -2.8579    0.9554 H         1 UNK         0.3140 
     76 H76        29.9889   -0.4459   -0.1200 H         1 UNK         0.1085 
     77 H77        30.0223   -1.7684   -2.2870 H         1 UNK         0.0836 
     78 H78        30.8554   -2.4967   -0.9519 H         1 UNK         0.0836 
     79 H79        29.7631   -5.9052   -2.1582 H         1 UNK         0.0731 
     80 H80        31.0315   -4.8798   -1.5402 H         1 UNK         0.0731 
     81 H81        32.3786   -3.5872   -3.0831 H         1 UNK         0.1312 
     82 H82        31.4815   -3.7032   -7.2686 H         1 UNK         0.1406 
     83 H83        28.7458   -5.4013   -4.4302 H         1 UNK         0.1631 
     84 H84        29.5551   -5.7824   -7.6815 H         1 UNK         0.0717 
     85 H85        29.0866   -4.1231   -7.9006 H         1 UNK         0.0717 
     86 H86        25.7017   -4.2008   -5.6149 H         1 UNK         0.0934 
     87 H87        27.2499   -3.5556   -5.2165 H         1 UNK         0.0934 
     88 H88        26.3368   -3.1959   -8.0949 H         1 UNK         0.0739 
     89 H89        24.5029   -2.4683   -6.1691 H         1 UNK         0.3093 
     90 H90        23.2522    0.5242   -7.3131 H         1 UNK         0.0818 
     91 H91        21.2341   -0.5184   -8.2978 H         1 UNK         0.0819 
     92 H92        22.5791   -0.5862   -9.4216 H         1 UNK         0.0819 
     93 H93        22.1075   -2.0319   -8.5406 H         1 UNK         0.0819 
     94 H94        21.9453   -1.7611   -6.1333 H         1 UNK         0.3041 
     95 H95        24.7736    0.4432   -5.3092 H         1 UNK         0.0784 
     96 H96        22.8771    2.0671   -5.7258 H         1 UNK         0.0793 
     97 H97        22.4955    2.0548   -4.0154 H         1 UNK         0.0793 
     98 H98        24.0314    2.7120   -4.5762 H         1 UNK         0.0793 
     99 H99        24.0247    0.9416   -2.5318 H         1 UNK         0.3024 
    100 H100       25.4584    0.3542   -0.8792 H         1 UNK         0.1171 
    101 H101       24.5232   -1.6351    0.3018 H         1 UNK         0.0786 
    102 H102       23.4771   -1.1789   -1.0318 H         1 UNK         0.0786 
    103 H103       24.5464   -2.5624   -1.1992 H         1 UNK         0.0786 
    104 H104       26.8999   -2.1472   -0.6773 H         1 UNK         0.2977 
    105 H105       27.0962   -1.1344   -5.2206 H         1 UNK         0.3127 
    106 H106       29.7079   -0.4790   -6.1435 H         1 UNK         0.0770 
    107 H107       27.9358    0.9720   -4.1032 H         1 UNK         0.0814 
    108 H108       29.6769    1.1516   -4.2614 H         1 UNK         0.0814 
    109 H109       28.9989   -0.3870   -3.7557 H         1 UNK         0.0814 
    110 H110       26.6042    0.9367   -6.9138 H         1 UNK         0.2983 
    111 H111       27.6319    3.4889   -7.8649 H         1 UNK         0.0947 
    112 H112       25.3323    3.7952   -8.7354 H         1 UNK         0.0806 
    113 H113       25.2792    3.2611   -7.0638 H         1 UNK         0.0806 
    114 H114       24.9274    2.1274   -8.3680 H         1 UNK         0.0806 
    115 H115       26.5571    0.4075   -9.3796 H         1 UNK         0.3000 
    116 H116       27.1750    1.1567  -12.0667 H         1 UNK         0.0850 
    117 H117       26.8562   -1.2899  -12.5066 H         1 UNK         0.0810 
    118 H118       25.5626   -0.6414  -11.5090 H         1 UNK         0.0810 
    119 H119       26.8401   -1.6058  -10.7748 H         1 UNK         0.0810 
    120 H120       29.0142   -0.7305   -9.6104 H         1 UNK         0.3040 
    121 H121       31.2651   -1.1859  -11.3844 H         1 UNK         0.0766 
    122 H122       30.9335   -1.6189   -8.3753 H         1 UNK         0.0812 
    123 H123       32.2357   -2.2658   -9.3658 H         1 UNK         0.0812 
    124 H124       30.5850   -2.8088   -9.6291 H         1 UNK         0.0812 
    125 H125       30.3734    1.4902   -9.4466 H         1 UNK         0.3205 
    126 H126       31.2854    3.3770   -8.7757 H         1 UNK         0.0754 
    127 H127       33.2050    4.3732   -9.9457 H         1 UNK         0.0769 
    128 H128       32.1466    3.6011  -11.1148 H         1 UNK         0.0769 
    129 H129       33.6551    2.8230  -10.6370 H         1 UNK         0.0769 
    130 H130       31.4517    1.3619   -7.0653 H         1 UNK         0.2981 
    131 H131       34.1346    1.3639   -5.7879 H         1 UNK         0.0541 
    132 H132       31.2272    3.2279   -5.5798 H         1 UNK         0.3459 
    133 H133       31.5281    3.8422   -3.9721 H         1 UNK         0.3459 
    134 H134       31.6897   -0.3180   -5.0436 H         1 UNK         0.0612 
    135 H135       33.2661   -0.4049   -4.3038 H         1 UNK         0.0612 
    136 H136       34.0118   -3.6322   -6.0856 H         1 UNK         0.0624 
    137 H137       33.9757   -2.7147   -4.6029 H         1 UNK         0.0624 
@<TRIPOS>BOND
     1    1    2 1    
     2    1   72 1    
     3    1   73 1    
     4    1   74 1    
     5    2    3 2    
     6    2    4 am   BACKBONE|DICT|INTERRES
     7    4    5 1    
     8    4   75 1    
     9    5    6 1    
    10    5   35 1    
    11    5   76 1    
    12    6    7 1    
    13    6   77 1    
    14    6   78 1    
    15    7    8 1    
    16    8    9 1    
    17    8   79 1    
    18    8   80 1    
    19    9   10 ar   
    20    9   14 ar   
    21   10   11 ar   
    22   10   81 1    
    23   11   12 ar   
    24   11   71 1    
    25   12   13 ar   
    26   12   82 1    
    27   13   14 ar   
    28   13   15 1    
    29   14   83 1    
    30   15   16 1    
    31   15   84 1    
    32   15   85 1    
    33   16   17 1    
    34   17   18 1    
    35   17   86 1    
    36   17   87 1    
    37   18   19 1    
    38   18   37 1    
    39   18   88 1    
    40   19   20 am   BACKBONE|DICT|INTERRES
    41   19   89 1    
    42   20   21 2    
    43   20   22 1    
    44   22   23 1    
    45   22   24 1    
    46   22   90 1    
    47   23   91 1    
    48   23   92 1    
    49   23   93 1    
    50   24   25 am   BACKBONE|DICT|INTERRES
    51   24   94 1    
    52   25   26 2    
    53   25   27 1    
    54   27   28 1    
    55   27   29 1    
    56   27   95 1    
    57   28   96 1    
    58   28   97 1    
    59   28   98 1    
    60   29   30 am   BACKBONE|DICT|INTERRES
    61   29   99 1    
    62   30   31 2    
    63   30   32 1    
    64   32   33 1    
    65   32   34 1    
    66   32  100 1    
    67   33  101 1    
    68   33  102 1    
    69   33  103 1    
    70   34   35 am   BACKBONE|DICT|INTERRES
    71   34  104 1    
    72   35   36 2    
    73   37   38 2    
    74   37   39 am   BACKBONE|DICT|INTERRES
    75   39   40 1    
    76   39  105 1    
    77   40   41 1    
    78   40   42 1    
    79   40  106 1    
    80   41  107 1    
    81   41  108 1    
    82   41  109 1    
    83   42   43 2    
    84   42   44 am   BACKBONE|DICT|INTERRES
    85   44   45 1    
    86   44  110 1    
    87   45   46 1    
    88   45   47 1    
    89   45  111 1    
    90   46  112 1    
    91   46  113 1    
    92   46  114 1    
    93   47   48 2    
    94   47   49 am   BACKBONE|DICT|INTERRES
    95   49   50 1    
    96   49  115 1    
    97   50   51 1    
    98   50   52 1    
    99   50  116 1    
   100   51  117 1    
   101   51  118 1    
   102   51  119 1    
   103   52   53 2    
   104   52   54 am   BACKBONE|DICT|INTERRES
   105   54   55 1    
   106   54  120 1    
   107   55   56 1    
   108   55   57 1    
   109   55  121 1    
   110   56  122 1    
   111   56  123 1    
   112   56  124 1    
   113   57   58 2    
   114   57   59 am   BACKBONE|DICT|INTERRES
   115   59   60 1    
   116   59  125 1    
   117   60   61 1    
   118   60   62 1    
   119   60  126 1    
   120   61  127 1    
   121   61  128 1    
   122   61  129 1    
   123   62   63 2    
   124   62   64 am   BACKBONE|DICT|INTERRES
   125   64   65 1    
   126   64  130 1    
   127   65   66 1    
   128   65   69 1    
   129   65  131 1    
   130   66   67 am   BACKBONE|DICT|INTERRES
   131   66   68 2    
   132   67  132 1    
   133   67  133 1    
   134   69   70 1    
   135   69  134 1    
   136   69  135 1    
   137   70   71 1    
   138   71  136 1    
   139   71  137 1    
@<TRIPOS>SUBSTRUCTURE
     1 UNK         1 GROUP             0       ****    0 ROOT    
