@<TRIPOS>MOLECULE
3R137
137   139    1
SMALL
USER_CHARGES


@<TRIPOS>ATOM
      1 CA         25.0462   -7.0247   -0.2896 C.3       0 UNK        -0.2020 
      2 C          25.8845   -5.7578   -0.3639 C.2       0 UNK         0.4855 
      3 O          25.8366   -4.9353    0.5508 O.2       0 UNK        -0.5197 
      4 N          26.6404   -5.5792   -1.4542 N.am      1 UNK        -0.4892 
      5 CA         27.5515   -4.4528   -1.7051 C.3       1 UNK         0.0835 
      6 C6         28.6498   -4.8436   -2.7329 C.3       12 UNK        -0.0855 
      7 S7         29.9786   -5.8642   -2.0152 S.3       12 UNK        -0.2931 
      8 C8         30.8939   -4.6841   -0.9539 C.3       12 UNK         0.0378 
      9 C9         30.9924   -3.2710   -1.5246 C.ar      12 UNK        -0.0802 
     10 C10        31.8211   -3.0000   -2.6193 C.ar      12 UNK        -0.0944 
     11 C11        31.9166   -1.7013   -3.1318 C.ar      12 UNK        -0.0787 
     12 C12        31.1826   -0.6725   -2.5345 C.ar      12 UNK        -0.0862 
     13 C13        30.3329   -0.9303   -1.4558 C.ar      12 UNK        -0.0733 
     14 C14        30.2500   -2.2315   -0.9514 C.ar      12 UNK        -0.0832 
     15 C15        29.5345    0.1959   -0.8079 C.3       12 UNK         0.0240 
     16 S16        28.0325    0.6330   -1.7491 S.3       12 UNK        -0.2522 
     17 C17        28.6796    1.8386   -2.9584 C.3       12 UNK        -0.0967 
     18 CA         28.3205    1.5860   -4.4522 C.3       5 UNK         0.0660 
     19 N          28.0658    0.1845   -4.8129 N.am      5 UNK        -0.4015 
     20 C          28.1203   -0.2706   -6.0745 C.2       4 UNK         0.4946 
     21 O          28.4454    0.4226   -7.0361 O.2       4 UNK        -0.5353 
     22 CA         27.6875   -1.7172   -6.3287 C.3       4 UNK         0.0277 
     23 CB         28.7904   -2.7026   -5.9121 C.3       4 UNK        -0.1981 
     24 N          26.4262   -2.0219   -5.6558 N.am      4 UNK        -0.4209 
     25 C          25.2297   -1.5917   -6.0839 C.2       3 UNK         0.4942 
     26 O          25.0795   -0.8869   -7.0819 O.2       3 UNK        -0.5208 
     27 CA         23.9878   -2.0005   -5.2702 C.3       3 UNK         0.0250 
     28 CB         23.3872   -3.2994   -5.8306 C.3       3 UNK        -0.1990 
     29 N          24.2472   -2.1665   -3.8396 N.am      3 UNK        -0.4232 
     30 C          24.5975   -1.1743   -3.0102 C.2       2 UNK         0.4993 
     31 O          24.7103    0.0011   -3.3575 O.2       2 UNK        -0.5286 
     32 CA         24.9356   -1.5763   -1.5633 C.3       2 UNK         0.0209 
     33 CB         23.6554   -1.6749   -0.7186 C.3       2 UNK        -0.1931 
     34 N          25.7055   -2.8228   -1.4282 N.am      2 UNK        -0.4546 
     35 C          26.8224   -3.1436   -2.0979 C.2       1 UNK         0.5154 
     36 O          27.2768   -2.4442   -3.0029 O.2       1 UNK        -0.5181 
     37 C          27.2262    2.5443   -4.9698 C.2       5 UNK         0.5014 
     38 O          27.5535    3.6920   -5.2753 O.2       5 UNK        -0.5248 
     39 N          25.9741    2.0767   -5.1049 N.am      6 UNK        -0.4434 
     40 CA         24.8968    2.8222   -5.7669 C.3       6 UNK         0.0363 
     41 CB         23.5457    2.1279   -5.5378 C.3       6 UNK        -0.1936 
     42 C          25.1543    3.0271   -7.2714 C.2       6 UNK         0.5081 
     43 O          24.9255    4.1268   -7.7762 O.2       6 UNK        -0.5248 
     44 N          25.6394    1.9809   -7.9568 N.am      7 UNK        -0.4718 
     45 CA         26.0604    2.0388   -9.3610 C.3       7 UNK         0.0273 
     46 CB         26.1921    0.6101   -9.9122 C.3       7 UNK        -0.1935 
     47 C          27.3757    2.8132   -9.5607 C.2       7 UNK         0.5018 
     48 O          27.5562    3.4392  -10.6061 O.2       7 UNK        -0.5186 
     49 N          28.2741    2.7325   -8.5694 N.am      8 UNK        -0.4240 
     50 CA         29.6101    3.3289   -8.4564 C.3       8 UNK         0.0235 
     51 CB         29.5707    4.8652   -8.5661 C.3       8 UNK        -0.2000 
     52 C          30.6368    2.7115   -9.4174 C.2       8 UNK         0.4941 
     53 O          31.6915    2.2630   -8.9677 O.2       8 UNK        -0.5273 
     54 N          30.3023    2.6590  -10.7135 N.am      9 UNK        -0.4262 
     55 CA         31.1215    2.0763  -11.7817 C.3       9 UNK         0.0264 
     56 CB         30.4620    2.3646  -13.1395 C.3       9 UNK        -0.1955 
     57 C          31.3720    0.5667  -11.6145 C.2       9 UNK         0.5031 
     58 O          32.4093    0.0731  -12.0589 O.2       9 UNK        -0.5390 
     59 N          30.4410   -0.1305  -10.9477 N.am      10 UNK        -0.4204 
     60 CA         30.5163   -1.5555  -10.6138 C.3       10 UNK         0.0237 
     61 CB         29.1920   -1.9831   -9.9655 C.3       10 UNK        -0.1985 
     62 C          31.7011   -1.9262   -9.7018 C.2       10 UNK         0.4970 
     63 O          32.1676   -3.0641   -9.7670 O.2       10 UNK        -0.4914 
     64 N          32.1745   -0.9710   -8.8909 N.am      11 UNK        -0.4285 
     65 CA         33.3856   -1.1043   -8.0683 C.3       11 UNK         0.1007 
     66 C          34.7104   -0.8877   -8.8599 C.2       11 UNK         0.5703 
     67 N          34.6879   -0.5244  -10.1384 N.am      11 UNK        -0.7361 
     68 O          35.7906   -1.0707   -8.3035 O.2       11 UNK        -0.4986 
     69 C69        33.3208   -0.1996   -6.8104 C.3       12 UNK        -0.0947 
     70 S70        31.9394   -0.6394   -5.7027 S.3       12 UNK        -0.2240 
     71 C71        32.8369   -1.3913   -4.3056 C.3       12 UNK         0.0194 
     72 H72        25.3223   -7.6050    0.5903 H         1 UNK         0.0906 
     73 H73        23.9892   -6.7714   -0.2127 H         1 UNK         0.0906 
     74 H74        25.1811   -7.6559   -1.1677 H         1 UNK         0.0906 
     75 H75        26.6240   -6.2846   -2.1774 H         1 UNK         0.3140 
     76 H76        28.0440   -4.2157   -0.7609 H         1 UNK         0.1085 
     77 H77        29.1358   -3.9798   -3.1817 H         1 UNK         0.0836 
     78 H78        28.2101   -5.3806   -3.5749 H         1 UNK         0.0836 
     79 H79        31.8992   -5.0732   -0.7863 H         1 UNK         0.0731 
     80 H80        30.4178   -4.6627    0.0275 H         1 UNK         0.0731 
     81 H81        32.3910   -3.8024   -3.0678 H         1 UNK         0.1312 
     82 H82        31.2800    0.3301   -2.9220 H         1 UNK         0.1406 
     83 H83        29.6079   -2.4320   -0.1049 H         1 UNK         0.1631 
     84 H84        30.1652    1.0763   -0.6769 H         1 UNK         0.0717 
     85 H85        29.2284   -0.0984    0.1971 H         1 UNK         0.0717 
     86 H86        28.3564    2.8299   -2.6332 H         1 UNK         0.0934 
     87 H87        29.7630    1.8827   -2.8661 H         1 UNK         0.0934 
     88 H88        29.2133    1.8713   -5.0148 H         1 UNK         0.0739 
     89 H89        27.8007   -0.4424   -4.0610 H         1 UNK         0.3093 
     90 H90        27.5192   -1.8409   -7.3995 H         1 UNK         0.0818 
     91 H91        29.1481   -2.5064   -4.9015 H         1 UNK         0.0819 
     92 H92        28.4495   -3.7366   -5.9604 H         1 UNK         0.0819 
     93 H93        29.6524   -2.6124   -6.5742 H         1 UNK         0.0819 
     94 H94        26.4981   -2.4811   -4.7529 H         1 UNK         0.3041 
     95 H95        23.2456   -1.2079   -5.3830 H         1 UNK         0.0784 
     96 H96        23.1584   -3.1961   -6.8924 H         1 UNK         0.0793 
     97 H97        24.0733   -4.1409   -5.7257 H         1 UNK         0.0793 
     98 H98        22.4567   -3.5579   -5.3247 H         1 UNK         0.0793 
     99 H99        24.1958   -3.1035   -3.4672 H         1 UNK         0.3024 
    100 H100       25.5506   -0.7761   -1.1491 H         1 UNK         0.1171 
    101 H101       23.8869   -1.8335    0.3349 H         1 UNK         0.0786 
    102 H102       23.0711   -0.7559   -0.7852 H         1 UNK         0.0786 
    103 H103       23.0154   -2.4943   -1.0483 H         1 UNK         0.0786 
    104 H104       25.4350   -3.4510   -0.6775 H         1 UNK         0.2977 
    105 H105       25.7402    1.1609   -4.7345 H         1 UNK         0.3127 
    106 H106       24.8459    3.8104   -5.3045 H         1 UNK         0.0770 
    107 H107       23.5312    1.1235   -5.9595 H         1 UNK         0.0814 
    108 H108       22.7356    2.6887   -6.0058 H         1 UNK         0.0814 
    109 H109       23.3133    2.0514   -4.4756 H         1 UNK         0.0814 
    110 H110       25.7374    1.0867   -7.4873 H         1 UNK         0.2983 
    111 H111       25.2857    2.5558   -9.9315 H         1 UNK         0.0947 
    112 H112       26.5082    0.6176  -10.9562 H         1 UNK         0.0806 
    113 H113       25.2405    0.0801   -9.8650 H         1 UNK         0.0806 
    114 H114       26.9225    0.0277   -9.3501 H         1 UNK         0.0806 
    115 H115       28.0678    2.0592   -7.8340 H         1 UNK         0.3000 
    116 H116       29.9453    3.0851   -7.4467 H         1 UNK         0.0850 
    117 H117       30.5570    5.2920   -8.3796 H         1 UNK         0.0810 
    118 H118       28.8877    5.2929   -7.8318 H         1 UNK         0.0810 
    119 H119       29.2545    5.2016   -9.5537 H         1 UNK         0.0810 
    120 H120       29.3934    3.0368  -10.9712 H         1 UNK         0.3040 
    121 H121       32.0945    2.5715  -11.7589 H         1 UNK         0.0766 
    122 H122       30.3626    3.4364  -13.3125 H         1 UNK         0.0812 
    123 H123       29.4682    1.9200  -13.2086 H         1 UNK         0.0812 
    124 H124       31.0591    1.9597  -13.9579 H         1 UNK         0.0812 
    125 H125       29.6319    0.3711  -10.6134 H         1 UNK         0.3205 
    126 H126       30.6392   -2.1082  -11.5475 H         1 UNK         0.0754 
    127 H127       29.2085   -3.0387   -9.6904 H         1 UNK         0.0769 
    128 H128       28.3496   -1.8372  -10.6419 H         1 UNK         0.0769 
    129 H129       29.0020   -1.4102   -9.0591 H         1 UNK         0.0769 
    130 H130       31.7548   -0.0507   -8.9058 H         1 UNK         0.2981 
    131 H131       33.4344   -2.1352   -7.7123 H         1 UNK         0.0541 
    132 H132       33.8158   -0.3795  -10.6336 H         1 UNK         0.3459 
    133 H133       35.5615   -0.3991  -10.6241 H         1 UNK         0.3459 
    134 H134       34.2532   -0.2526   -6.2456 H         1 UNK         0.0612 
    135 H135       33.2059    0.8459   -7.1009 H         1 UNK         0.0612 
    136 H136       33.6155   -0.7073   -3.9651 H         1 UNK         0.0624 
    137 H137       33.3406   -2.2937   -4.6556 H         1 UNK         0.0624 
@<TRIPOS>BOND
     1    1    2 1    
     2    1   72 1    
     3    1   73 1    
     4    1   74 1    
     5    2    3 2    
     6    2    4 am   BACKBONE|DICT|INTERRES
     7    4    5 1    
     8    4   75 1    
     9    5    6 1    
    10    5   35 1    
    11    5   76 1    
    12    6    7 1    
    13    6   77 1    
    14    6   78 1    
    15    7    8 1    
    16    8    9 1    
    17    8   79 1    
    18    8   80 1    
    19    9   10 ar   
    20    9   14 ar   
    21   10   11 ar   
    22   10   81 1    
    23   11   12 ar   
    24   11   71 1    
    25   12   13 ar   
    26   12   82 1    
    27   13   14 ar   
    28   13   15 1    
    29   14   83 1    
    30   15   16 1    
    31   15   84 1    
    32   15   85 1    
    33   16   17 1    
    34   17   18 1    
    35   17   86 1    
    36   17   87 1    
    37   18   19 1    
    38   18   37 1    
    39   18   88 1    
    40   19   20 am   BACKBONE|DICT|INTERRES
    41   19   89 1    
    42   20   21 2    
    43   20   22 1    
    44   22   23 1    
    45   22   24 1    
    46   22   90 1    
    47   23   91 1    
    48   23   92 1    
    49   23   93 1    
    50   24   25 am   BACKBONE|DICT|INTERRES
    51   24   94 1    
    52   25   26 2    
    53   25   27 1    
    54   27   28 1    
    55   27   29 1    
    56   27   95 1    
    57   28   96 1    
    58   28   97 1    
    59   28   98 1    
    60   29   30 am   BACKBONE|DICT|INTERRES
    61   29   99 1    
    62   30   31 2    
    63   30   32 1    
    64   32   33 1    
    65   32   34 1    
    66   32  100 1    
    67   33  101 1    
    68   33  102 1    
    69   33  103 1    
    70   34   35 am   BACKBONE|DICT|INTERRES
    71   34  104 1    
    72   35   36 2    
    73   37   38 2    
    74   37   39 am   BACKBONE|DICT|INTERRES
    75   39   40 1    
    76   39  105 1    
    77   40   41 1    
    78   40   42 1    
    79   40  106 1    
    80   41  107 1    
    81   41  108 1    
    82   41  109 1    
    83   42   43 2    
    84   42   44 am   BACKBONE|DICT|INTERRES
    85   44   45 1    
    86   44  110 1    
    87   45   46 1    
    88   45   47 1    
    89   45  111 1    
    90   46  112 1    
    91   46  113 1    
    92   46  114 1    
    93   47   48 2    
    94   47   49 am   BACKBONE|DICT|INTERRES
    95   49   50 1    
    96   49  115 1    
    97   50   51 1    
    98   50   52 1    
    99   50  116 1    
   100   51  117 1    
   101   51  118 1    
   102   51  119 1    
   103   52   53 2    
   104   52   54 am   BACKBONE|DICT|INTERRES
   105   54   55 1    
   106   54  120 1    
   107   55   56 1    
   108   55   57 1    
   109   55  121 1    
   110   56  122 1    
   111   56  123 1    
   112   56  124 1    
   113   57   58 2    
   114   57   59 am   BACKBONE|DICT|INTERRES
   115   59   60 1    
   116   59  125 1    
   117   60   61 1    
   118   60   62 1    
   119   60  126 1    
   120   61  127 1    
   121   61  128 1    
   122   61  129 1    
   123   62   63 2    
   124   62   64 am   BACKBONE|DICT|INTERRES
   125   64   65 1    
   126   64  130 1    
   127   65   66 1    
   128   65   69 1    
   129   65  131 1    
   130   66   67 am   BACKBONE|DICT|INTERRES
   131   66   68 2    
   132   67  132 1    
   133   67  133 1    
   134   69   70 1    
   135   69  134 1    
   136   69  135 1    
   137   70   71 1    
   138   71  136 1    
   139   71  137 1    
@<TRIPOS>SUBSTRUCTURE
     1 UNK         1 GROUP             0       ****    0 ROOT    
