@<TRIPOS>MOLECULE
3R137
137   139    1
SMALL
USER_CHARGES


@<TRIPOS>ATOM
      1 CA         27.0301   -6.7808   -1.0560 C.3       0 UNK        -0.2020 
      2 C          26.9577   -5.5189   -0.2094 C.2       0 UNK         0.4855 
      3 O          26.4040   -5.5465    0.8896 O.2       0 UNK        -0.5197 
      4 N          27.5079   -4.4097   -0.7181 N.am      1 UNK        -0.4892 
      5 CA         27.5258   -3.0984   -0.0544 C.3       1 UNK         0.0835 
      6 C6         28.6901   -2.2232   -0.5811 C.3       12 UNK        -0.0855 
      7 S7         30.3289   -2.8012   -0.0116 S.3       12 UNK        -0.2931 
      8 C8         30.8446   -4.0188   -1.2730 C.3       12 UNK         0.0378 
      9 C9         30.7019   -3.5129   -2.7030 C.ar      12 UNK        -0.0802 
     10 C10        31.3127   -2.3188   -3.1006 C.ar      12 UNK        -0.0944 
     11 C11        31.1611   -1.8313   -4.4022 C.ar      12 UNK        -0.0787 
     12 C12        30.3903   -2.5696   -5.3108 C.ar      12 UNK        -0.0862 
     13 C13        29.7769   -3.7661   -4.9316 C.ar      12 UNK        -0.0733 
     14 C14        29.9504   -4.2415   -3.6294 C.ar      12 UNK        -0.0832 
     15 C15        28.9386   -4.5383   -5.9446 C.3       12 UNK         0.0240 
     16 S16        27.2750   -4.9834   -5.3389 S.3       12 UNK        -0.2522 
     17 C17        26.5817   -3.3816   -4.8138 C.3       12 UNK        -0.0967 
     18 CA         26.2121   -2.4371   -5.9958 C.3       5 UNK         0.0660 
     19 N          24.8570   -1.9012   -5.8651 N.am      5 UNK        -0.4015 
     20 C          24.1118   -1.4291   -6.8742 C.2       4 UNK         0.4946 
     21 O          24.4426   -1.4900   -8.0583 O.2       4 UNK        -0.5353 
     22 CA         22.7691   -0.7682   -6.5067 C.3       4 UNK         0.0277 
     23 CB         21.6153   -1.7706   -6.6724 C.3       4 UNK        -0.1981 
     24 N          22.7405   -0.2207   -5.1469 N.am      4 UNK        -0.4209 
     25 C          23.4487    0.8430   -4.7396 C.2       3 UNK         0.4942 
     26 O          24.1605    1.5156   -5.4827 O.2       3 UNK        -0.5208 
     27 CA         23.4015    1.1730   -3.2368 C.3       3 UNK         0.0250 
     28 CB         22.2091    2.0905   -2.9229 C.3       3 UNK        -0.1990 
     29 N          23.3539   -0.0132   -2.3711 N.am      3 UNK        -0.4232 
     30 C          24.2806   -0.9811   -2.3522 C.2       2 UNK         0.4993 
     31 O          25.2657   -0.9991   -3.0958 O.2       2 UNK        -0.5286 
     32 CA         24.0258   -2.1641   -1.4064 C.3       2 UNK         0.0209 
     33 CB         23.0914   -3.1875   -2.0735 C.3       2 UNK        -0.1931 
     34 N          25.2811   -2.8295   -1.0564 N.am      2 UNK        -0.4546 
     35 C          26.1811   -2.3475   -0.1880 C.2       1 UNK         0.5154 
     36 O          25.9848   -1.3410    0.4959 O.2       1 UNK        -0.5181 
     37 C          27.2012   -1.2638   -6.1159 C.2       5 UNK         0.5014 
     38 O          27.9561   -1.1929   -7.0851 O.2       5 UNK        -0.5248 
     39 N          27.1410   -0.3440   -5.1403 N.am      6 UNK        -0.4434 
     40 CA         28.0053    0.8339   -5.0090 C.3       6 UNK         0.0363 
     41 CB         27.6924    1.5293   -3.6751 C.3       6 UNK        -0.1936 
     42 C          27.9232    1.8362   -6.1776 C.2       6 UNK         0.5081 
     43 O          28.8320    2.6501   -6.3381 O.2       6 UNK        -0.5248 
     44 N          26.8487    1.7638   -6.9730 N.am      7 UNK        -0.4718 
     45 CA         26.6499    2.5260   -8.2061 C.3       7 UNK         0.0273 
     46 CB         25.1695    2.4265   -8.6123 C.3       7 UNK        -0.1935 
     47 C          27.5576    2.0920   -9.3758 C.2       7 UNK         0.5018 
     48 O          27.6080    2.8141  -10.3735 O.2       7 UNK        -0.5186 
     49 N          28.2282    0.9329   -9.2712 N.am      8 UNK        -0.4240 
     50 CA         29.1388    0.4051  -10.2919 C.3       8 UNK         0.0235 
     51 CB         29.5829   -1.0126   -9.8968 C.3       8 UNK        -0.2000 
     52 C          30.3667    1.3067  -10.5109 C.2       8 UNK         0.4941 
     53 O          30.9375    1.8181   -9.5464 O.2       8 UNK        -0.5273 
     54 N          30.7851    1.4421  -11.7770 N.am      9 UNK        -0.4262 
     55 CA         31.9054    2.2890  -12.2101 C.3       9 UNK         0.0264 
     56 CB         31.9304    2.3403  -13.7469 C.3       9 UNK        -0.1955 
     57 C          33.2840    1.8677  -11.6643 C.2       9 UNK         0.5031 
     58 O          34.2027    2.6881  -11.6566 O.2       9 UNK        -0.5390 
     59 N          33.4085    0.6093  -11.2225 N.am      10 UNK        -0.4204 
     60 CA         34.6068    0.0562  -10.5907 C.3       10 UNK         0.0237 
     61 CB         34.5087   -1.4787  -10.5973 C.3       10 UNK        -0.1985 
     62 C          34.8472    0.5698   -9.1578 C.2       10 UNK         0.4970 
     63 O          35.9805    0.4786   -8.6832 O.2       10 UNK        -0.4914 
     64 N          33.7998    1.0650   -8.4840 N.am      11 UNK        -0.4285 
     65 CA         33.8663    1.5687   -7.1045 C.3       11 UNK         0.1007 
     66 C          34.6177    2.9232   -7.0006 C.2       11 UNK         0.5703 
     67 N          35.3066    3.1653   -5.8932 N.am      11 UNK        -0.7361 
     68 O          34.5526    3.7698   -7.8902 O.2       11 UNK        -0.4986 
     69 C69        32.4602    1.6673   -6.4612 C.3       12 UNK        -0.0947 
     70 S70        31.5794    0.0724   -6.4743 S.3       12 UNK        -0.2240 
     71 C71        31.8378   -0.5051   -4.7622 C.3       12 UNK         0.0194 
     72 H72        26.0299   -7.1823   -1.2171 H         1 UNK         0.0906 
     73 H73        27.4797   -6.5952   -2.0315 H         1 UNK         0.0906 
     74 H74        27.6236   -7.5398   -0.5470 H         1 UNK         0.0906 
     75 H75        27.9508   -4.4422   -1.6238 H         1 UNK         0.3140 
     76 H76        27.6766   -3.2543    1.0165 H         1 UNK         0.1085 
     77 H77        28.5938   -1.1995   -0.2130 H         1 UNK         0.0836 
     78 H78        28.6592   -2.1400   -1.6685 H         1 UNK         0.0836 
     79 H79        31.8887   -4.2810   -1.0973 H         1 UNK         0.0731 
     80 H80        30.2751   -4.9371   -1.1247 H         1 UNK         0.0731 
     81 H81        31.8973   -1.7576   -2.3840 H         1 UNK         0.1312 
     82 H82        30.2508   -2.2198   -6.3230 H         1 UNK         0.1406 
     83 H83        29.4886   -5.1758   -3.3410 H         1 UNK         0.1631 
     84 H84        29.4689   -5.4527   -6.2131 H         1 UNK         0.0717 
     85 H85        28.8261   -3.9688   -6.8687 H         1 UNK         0.0717 
     86 H86        25.6897   -3.6271   -4.2362 H         1 UNK         0.0934 
     87 H87        27.2528   -2.9161   -4.0886 H         1 UNK         0.0934 
     88 H88        26.2555   -3.0008   -6.9304 H         1 UNK         0.0739 
     89 H89        24.5436   -1.7363   -4.9176 H         1 UNK         0.3093 
     90 H90        22.6104    0.0564   -7.2055 H         1 UNK         0.0818 
     91 H91        20.6492   -1.2975   -6.4951 H         1 UNK         0.0819 
     92 H92        21.5936   -2.1756   -7.6853 H         1 UNK         0.0819 
     93 H93        21.7089   -2.6138   -5.9868 H         1 UNK         0.0819 
     94 H94        22.1694   -0.7046   -4.4694 H         1 UNK         0.3041 
     95 H95        24.3181    1.7144   -2.9953 H         1 UNK         0.0784 
     96 H96        22.2349    2.9885   -3.5422 H         1 UNK         0.0793 
     97 H97        21.2553    1.5946   -3.1078 H         1 UNK         0.0793 
     98 H98        22.2225    2.4174   -1.8830 H         1 UNK         0.0793 
     99 H99        22.5661   -0.0794   -1.7420 H         1 UNK         0.3024 
    100 H100       23.5572   -1.7918   -0.4922 H         1 UNK         0.1171 
    101 H101       22.1243   -2.7423   -2.3112 H         1 UNK         0.0786 
    102 H102       22.8993   -4.0347   -1.4146 H         1 UNK         0.0786 
    103 H103       23.5084   -3.5762   -3.0033 H         1 UNK         0.0786 
    104 H104       25.5277   -3.6530   -1.5834 H         1 UNK         0.2977 
    105 H105       26.4734   -0.4946   -4.3851 H         1 UNK         0.3127 
    106 H106       29.0332    0.4718   -4.9708 H         1 UNK         0.0770 
    107 H107       26.6700    1.9074   -3.6533 H         1 UNK         0.0814 
    108 H108       28.3588    2.3770   -3.5108 H         1 UNK         0.0814 
    109 H109       27.8181    0.8491   -2.8322 H         1 UNK         0.0814 
    110 H110       26.1108    1.1231   -6.7116 H         1 UNK         0.2983 
    111 H111       26.8790    3.5730   -7.9966 H         1 UNK         0.0947 
    112 H112       24.9725    2.9888   -9.5261 H         1 UNK         0.0806 
    113 H113       24.5181    2.8341   -7.8392 H         1 UNK         0.0806 
    114 H114       24.8705    1.3930   -8.7929 H         1 UNK         0.0806 
    115 H115       28.1418    0.3911   -8.4170 H         1 UNK         0.3000 
    116 H116       28.5780    0.3429  -11.2268 H         1 UNK         0.0850 
    117 H117       30.2365   -1.4485  -10.6532 H         1 UNK         0.0810 
    118 H118       28.7273   -1.6791   -9.7851 H         1 UNK         0.0810 
    119 H119       30.1283   -1.0129   -8.9522 H         1 UNK         0.0810 
    120 H120       30.2701    0.9742  -12.5096 H         1 UNK         0.3040 
    121 H121       31.7133    3.2979  -11.8387 H         1 UNK         0.0766 
    122 H122       32.7320    2.9891  -14.1035 H         1 UNK         0.0812 
    123 H123       30.9967    2.7356  -14.1475 H         1 UNK         0.0812 
    124 H124       32.0936    1.3533  -14.1817 H         1 UNK         0.0812 
    125 H125       32.6016    0.0061  -11.2800 H         1 UNK         0.3205 
    126 H126       35.4729    0.3458  -11.1899 H         1 UNK         0.0754 
    127 H127       35.4032   -1.9291  -10.1645 H         1 UNK         0.0769 
    128 H128       34.4124   -1.8668  -11.6116 H         1 UNK         0.0769 
    129 H129       33.6541   -1.8314  -10.0182 H         1 UNK         0.0769 
    130 H130       32.8998    1.1573   -8.9402 H         1 UNK         0.2981 
    131 H131       34.4359    0.8376   -6.5268 H         1 UNK         0.0541 
    132 H132       35.3597    2.4848   -5.1513 H         1 UNK         0.3459 
    133 H133       35.7896    4.0452   -5.8003 H         1 UNK         0.3459 
    134 H134       31.8450    2.3930   -6.9964 H         1 UNK         0.0612 
    135 H135       32.5276    2.0284   -5.4335 H         1 UNK         0.0612 
    136 H136       32.9108   -0.5984   -4.5893 H         1 UNK         0.0624 
    137 H137       31.4736    0.2648   -4.0804 H         1 UNK         0.0624 
@<TRIPOS>BOND
     1    1    2 1    
     2    1   72 1    
     3    1   73 1    
     4    1   74 1    
     5    2    3 2    
     6    2    4 am   BACKBONE|DICT|INTERRES
     7    4    5 1    
     8    4   75 1    
     9    5    6 1    
    10    5   35 1    
    11    5   76 1    
    12    6    7 1    
    13    6   77 1    
    14    6   78 1    
    15    7    8 1    
    16    8    9 1    
    17    8   79 1    
    18    8   80 1    
    19    9   10 ar   
    20    9   14 ar   
    21   10   11 ar   
    22   10   81 1    
    23   11   12 ar   
    24   11   71 1    
    25   12   13 ar   
    26   12   82 1    
    27   13   14 ar   
    28   13   15 1    
    29   14   83 1    
    30   15   16 1    
    31   15   84 1    
    32   15   85 1    
    33   16   17 1    
    34   17   18 1    
    35   17   86 1    
    36   17   87 1    
    37   18   19 1    
    38   18   37 1    
    39   18   88 1    
    40   19   20 am   BACKBONE|DICT|INTERRES
    41   19   89 1    
    42   20   21 2    
    43   20   22 1    
    44   22   23 1    
    45   22   24 1    
    46   22   90 1    
    47   23   91 1    
    48   23   92 1    
    49   23   93 1    
    50   24   25 am   BACKBONE|DICT|INTERRES
    51   24   94 1    
    52   25   26 2    
    53   25   27 1    
    54   27   28 1    
    55   27   29 1    
    56   27   95 1    
    57   28   96 1    
    58   28   97 1    
    59   28   98 1    
    60   29   30 am   BACKBONE|DICT|INTERRES
    61   29   99 1    
    62   30   31 2    
    63   30   32 1    
    64   32   33 1    
    65   32   34 1    
    66   32  100 1    
    67   33  101 1    
    68   33  102 1    
    69   33  103 1    
    70   34   35 am   BACKBONE|DICT|INTERRES
    71   34  104 1    
    72   35   36 2    
    73   37   38 2    
    74   37   39 am   BACKBONE|DICT|INTERRES
    75   39   40 1    
    76   39  105 1    
    77   40   41 1    
    78   40   42 1    
    79   40  106 1    
    80   41  107 1    
    81   41  108 1    
    82   41  109 1    
    83   42   43 2    
    84   42   44 am   BACKBONE|DICT|INTERRES
    85   44   45 1    
    86   44  110 1    
    87   45   46 1    
    88   45   47 1    
    89   45  111 1    
    90   46  112 1    
    91   46  113 1    
    92   46  114 1    
    93   47   48 2    
    94   47   49 am   BACKBONE|DICT|INTERRES
    95   49   50 1    
    96   49  115 1    
    97   50   51 1    
    98   50   52 1    
    99   50  116 1    
   100   51  117 1    
   101   51  118 1    
   102   51  119 1    
   103   52   53 2    
   104   52   54 am   BACKBONE|DICT|INTERRES
   105   54   55 1    
   106   54  120 1    
   107   55   56 1    
   108   55   57 1    
   109   55  121 1    
   110   56  122 1    
   111   56  123 1    
   112   56  124 1    
   113   57   58 2    
   114   57   59 am   BACKBONE|DICT|INTERRES
   115   59   60 1    
   116   59  125 1    
   117   60   61 1    
   118   60   62 1    
   119   60  126 1    
   120   61  127 1    
   121   61  128 1    
   122   61  129 1    
   123   62   63 2    
   124   62   64 am   BACKBONE|DICT|INTERRES
   125   64   65 1    
   126   64  130 1    
   127   65   66 1    
   128   65   69 1    
   129   65  131 1    
   130   66   67 am   BACKBONE|DICT|INTERRES
   131   66   68 2    
   132   67  132 1    
   133   67  133 1    
   134   69   70 1    
   135   69  134 1    
   136   69  135 1    
   137   70   71 1    
   138   71  136 1    
   139   71  137 1    
@<TRIPOS>SUBSTRUCTURE
     1 UNK         1 GROUP             0       ****    0 ROOT    
