@<TRIPOS>MOLECULE
3R137
137   139    1
SMALL
USER_CHARGES


@<TRIPOS>ATOM
      1 CA         29.0816   -4.4534   -3.8041 C.3       0 UNK        -0.2020 
      2 C          28.1635   -4.1255   -2.6403 C.2       0 UNK         0.4855 
      3 O          27.0617   -4.6701   -2.5488 O.2       0 UNK        -0.5197 
      4 N          28.5969   -3.2229   -1.7500 N.am      1 UNK        -0.4892 
      5 CA         27.8766   -2.8003   -0.5376 C.3       1 UNK         0.0835 
      6 C6         28.8302   -2.2465    0.5554 C.3       12 UNK        -0.0855 
      7 S7         30.2018   -3.3888    0.9528 S.3       12 UNK        -0.2931 
      8 C8         31.6701   -2.4191    0.4722 C.3       12 UNK         0.0378 
      9 C9         31.7019   -2.1189   -1.0202 C.ar      12 UNK        -0.0802 
     10 C10        32.1337   -3.0919   -1.9284 C.ar      12 UNK        -0.0944 
     11 C11        32.1572   -2.8192   -3.3000 C.ar      12 UNK        -0.0787 
     12 C12        31.7312   -1.5681   -3.7569 C.ar      12 UNK        -0.0862 
     13 C13        31.3122   -0.5831   -2.8604 C.ar      12 UNK        -0.0733 
     14 C14        31.3095   -0.8617   -1.4918 C.ar      12 UNK        -0.0832 
     15 C15        30.8970    0.7920   -3.3663 C.3       12 UNK         0.0240 
     16 S16        29.1391    1.1524   -3.0611 S.3       12 UNK        -0.2522 
     17 C17        28.2981   -0.0004   -4.1978 C.3       12 UNK        -0.0967 
     18 CA         28.0093    0.5776   -5.6078 C.3       5 UNK         0.0660 
     19 N          27.4928   -0.4727   -6.4873 N.am      5 UNK        -0.4015 
     20 C          27.1201   -0.3662   -7.7683 C.2       4 UNK         0.4946 
     21 O          27.2220    0.6726   -8.4214 O.2       4 UNK        -0.5353 
     22 CA         26.4632   -1.6043   -8.4175 C.3       4 UNK         0.0277 
     23 CB         27.5129   -2.5347   -9.0530 C.3       4 UNK        -0.1981 
     24 N          25.5614   -2.3533   -7.5242 N.am      4 UNK        -0.4209 
     25 C          25.8705   -3.0362   -6.4124 C.2       3 UNK         0.4942 
     26 O          27.0176   -3.1713   -5.9816 O.2       3 UNK        -0.5208 
     27 CA         24.6939   -3.5917   -5.5957 C.3       3 UNK         0.0250 
     28 CB         24.7346   -5.1279   -5.5642 C.3       3 UNK        -0.1990 
     29 N          24.7096   -3.0790   -4.2222 N.am      3 UNK        -0.4232 
     30 C          24.6672   -1.7807   -3.8800 C.2       2 UNK         0.4993 
     31 O          24.5852   -0.8599   -4.6927 O.2       2 UNK        -0.5286 
     32 CA         24.7845   -1.4454   -2.3896 C.3       2 UNK         0.0209 
     33 CB         23.4553   -1.6803   -1.6532 C.3       2 UNK        -0.1931 
     34 N          25.8509   -2.2389   -1.7853 N.am      2 UNK        -0.4546 
     35 C          26.7340   -1.8140   -0.8782 C.2       1 UNK         0.5154 
     36 O          26.6857   -0.7009   -0.3515 O.2       1 UNK        -0.5181 
     37 C          27.0895    1.8194   -5.5724 C.2       5 UNK         0.5014 
     38 O          27.5792    2.9357   -5.7500 O.2       5 UNK        -0.5248 
     39 N          25.7717    1.6117   -5.4203 N.am      6 UNK        -0.4434 
     40 CA         24.7573    2.6738   -5.4299 C.3       6 UNK         0.0363 
     41 CB         23.4089    2.0964   -4.9709 C.3       6 UNK        -0.1936 
     42 C          24.6007    3.3861   -6.7879 C.2       6 UNK         0.5081 
     43 O          24.1169    4.5177   -6.8174 O.2       6 UNK        -0.5248 
     44 N          25.0238    2.7331   -7.8788 N.am      7 UNK        -0.4718 
     45 CA         25.0739    3.2962   -9.2309 C.3       7 UNK         0.0273 
     46 CB         24.7076    2.1928  -10.2402 C.3       7 UNK        -0.1935 
     47 C          26.4503    3.9104   -9.5578 C.2       7 UNK         0.5018 
     48 O          26.6545    4.3366  -10.6950 O.2       7 UNK        -0.5186 
     49 N          27.3686    3.9298   -8.5771 N.am      8 UNK        -0.4240 
     50 CA         28.7636    4.3806   -8.6520 C.3       8 UNK         0.0235 
     51 CB         28.8568    5.8757   -9.0257 C.3       8 UNK        -0.2000 
     52 C          29.6643    3.4894   -9.5307 C.2       8 UNK         0.4941 
     53 O          30.7572    3.9185   -9.9044 O.2       8 UNK        -0.5273 
     54 N          29.2339    2.2514   -9.8066 N.am      9 UNK        -0.4262 
     55 CA         29.9941    1.2329  -10.5290 C.3       9 UNK         0.0264 
     56 CB         29.0510    0.5162  -11.5133 C.3       9 UNK        -0.1955 
     57 C          30.6259    0.2797   -9.5036 C.2       9 UNK         0.5031 
     58 O          30.3157   -0.9126   -9.4930 O.2       9 UNK        -0.5390 
     59 N          31.4593    0.8453   -8.6184 N.am      10 UNK        -0.4204 
     60 CA         32.0462    0.1990   -7.4429 C.3       10 UNK         0.0237 
     61 CB         32.9798    1.1905   -6.7278 C.3       10 UNK        -0.1985 
     62 C          32.7703   -1.1195   -7.7670 C.2       10 UNK         0.4970 
     63 O          33.8631   -1.0953   -8.3365 O.2       10 UNK        -0.4914 
     64 N          32.1197   -2.2303   -7.4005 N.am      11 UNK        -0.4285 
     65 CA         32.5584   -3.6174   -7.6167 C.3       11 UNK         0.1007 
     66 C          32.5364   -4.0698   -9.1089 C.2       11 UNK         0.5703 
     67 N          31.8376   -3.3756  -10.0009 N.am      11 UNK        -0.7361 
     68 O          33.1335   -5.0846   -9.4615 O.2       11 UNK        -0.4986 
     69 C69        33.8892   -3.9858   -6.8844 C.3       12 UNK        -0.0947 
     70 S70        34.1108   -3.3127   -5.1946 S.3       12 UNK        -0.2240 
     71 C71        32.6258   -3.8710   -4.2974 C.3       12 UNK         0.0194 
     72 H72        28.5546   -5.0447   -4.5528 H         1 UNK         0.0906 
     73 H73        29.4297   -3.5412   -4.2872 H         1 UNK         0.0906 
     74 H74        29.9418   -5.0260   -3.4595 H         1 UNK         0.0906 
     75 H75        29.5135   -2.8100   -1.8663 H         1 UNK         0.3140 
     76 H76        27.3951   -3.6849   -0.1139 H         1 UNK         0.1085 
     77 H77        28.2733   -2.0708    1.4778 H         1 UNK         0.0836 
     78 H78        29.2275   -1.2736    0.2666 H         1 UNK         0.0836 
     79 H79        32.5660   -2.9768    0.7490 H         1 UNK         0.0731 
     80 H80        31.6980   -1.4955    1.0529 H         1 UNK         0.0731 
     81 H81        32.4482   -4.0607   -1.5643 H         1 UNK         0.1312 
     82 H82        31.7507   -1.3558   -4.8140 H         1 UNK         0.1406 
     83 H83        30.9933   -0.0956   -0.7965 H         1 UNK         0.1631 
     84 H84        31.1006    0.8987   -4.4318 H         1 UNK         0.0717 
     85 H85        31.5010    1.5493   -2.8647 H         1 UNK         0.0717 
     86 H86        27.3683   -0.3127   -3.7206 H         1 UNK         0.0934 
     87 H87        28.8973   -0.9079   -4.2808 H         1 UNK         0.0934 
     88 H88        28.9577    0.8984   -6.0429 H         1 UNK         0.0739 
     89 H89        27.3748   -1.3955   -6.0739 H         1 UNK         0.3093 
     90 H90        25.8302   -1.2299   -9.2236 H         1 UNK         0.0818 
     91 H91        28.0186   -2.0384   -9.8802 H         1 UNK         0.0819 
     92 H92        28.2799   -2.8373   -8.3392 H         1 UNK         0.0819 
     93 H93        27.0545   -3.4374   -9.4563 H         1 UNK         0.0819 
     94 H94        24.5804   -2.2689   -7.7540 H         1 UNK         0.3041 
     95 H95        23.7551   -3.2783   -6.0569 H         1 UNK         0.0784 
     96 H96        24.7171   -5.5403   -6.5740 H         1 UNK         0.0793 
     97 H97        25.6392   -5.4959   -5.0771 H         1 UNK         0.0793 
     98 H98        23.8762   -5.5383   -5.0321 H         1 UNK         0.0793 
     99 H99        24.8031   -3.7740   -3.4964 H         1 UNK         0.3024 
    100 H100       25.0372   -0.3843   -2.3195 H         1 UNK         0.1171 
    101 H101       23.5230   -1.3692   -0.6106 H         1 UNK         0.0786 
    102 H102       22.6492   -1.1053   -2.1111 H         1 UNK         0.0786 
    103 H103       23.1611   -2.7303   -1.6700 H         1 UNK         0.0786 
    104 H104       26.0397   -3.1532   -2.1904 H         1 UNK         0.2977 
    105 H105       25.4264    0.6635   -5.2733 H         1 UNK         0.3127 
    106 H106       25.0656    3.4302   -4.7050 H         1 UNK         0.0770 
    107 H107       23.0564    1.3142   -5.6444 H         1 UNK         0.0814 
    108 H108       22.6411    2.8707   -4.9385 H         1 UNK         0.0814 
    109 H109       23.4796    1.6698   -3.9702 H         1 UNK         0.0814 
    110 H110       25.4594    1.8263   -7.7638 H         1 UNK         0.2983 
    111 H111       24.3366    4.0965   -9.3247 H         1 UNK         0.0947 
    112 H112       25.4454    1.3903  -10.2514 H         1 UNK         0.0806 
    113 H113       24.6504    2.5930  -11.2533 H         1 UNK         0.0806 
    114 H114       23.7362    1.7535  -10.0133 H         1 UNK         0.0806 
    115 H115       27.1050    3.5385   -7.6786 H         1 UNK         0.3000 
    116 H116       29.1553    4.2773   -7.6390 H         1 UNK         0.0850 
    117 H117       29.8761    6.2453   -8.9073 H         1 UNK         0.0810 
    118 H118       28.2175    6.4852   -8.3871 H         1 UNK         0.0810 
    119 H119       28.5681    6.0552  -10.0616 H         1 UNK         0.0810 
    120 H120       28.3679    1.9269   -9.3819 H         1 UNK         0.3040 
    121 H121       30.8034    1.6850  -11.1061 H         1 UNK         0.0766 
    122 H122       29.5714   -0.2799  -12.0471 H         1 UNK         0.0812 
    123 H123       28.6622    1.2088  -12.2597 H         1 UNK         0.0812 
    124 H124       28.1989    0.0680  -11.0020 H         1 UNK         0.0812 
    125 H125       31.6645    1.8276   -8.7390 H         1 UNK         0.3205 
    126 H126       31.2188   -0.0198   -6.7659 H         1 UNK         0.0754 
    127 H127       33.4271    0.7360   -5.8424 H         1 UNK         0.0769 
    128 H128       32.4412    2.0793   -6.3981 H         1 UNK         0.0769 
    129 H129       33.7965    1.5138   -7.3748 H         1 UNK         0.0769 
    130 H130       31.1863   -2.1347   -7.0310 H         1 UNK         0.2981 
    131 H131       31.7722   -4.2261   -7.1725 H         1 UNK         0.0541 
    132 H132       31.8205   -3.6845  -10.9591 H         1 UNK         0.3459 
    133 H133       31.3242   -2.5409   -9.7303 H         1 UNK         0.3459 
    134 H134       33.9932   -5.0706   -6.8271 H         1 UNK         0.0612 
    135 H135       34.7397   -3.6366   -7.4724 H         1 UNK         0.0612 
    136 H136       32.8523   -4.8139   -3.7976 H         1 UNK         0.0624 
    137 H137       31.8087   -4.0782   -4.9840 H         1 UNK         0.0624 
@<TRIPOS>BOND
     1    1    2 1    
     2    1   72 1    
     3    1   73 1    
     4    1   74 1    
     5    2    3 2    
     6    2    4 am   BACKBONE|DICT|INTERRES
     7    4    5 1    
     8    4   75 1    
     9    5    6 1    
    10    5   35 1    
    11    5   76 1    
    12    6    7 1    
    13    6   77 1    
    14    6   78 1    
    15    7    8 1    
    16    8    9 1    
    17    8   79 1    
    18    8   80 1    
    19    9   10 ar   
    20    9   14 ar   
    21   10   11 ar   
    22   10   81 1    
    23   11   12 ar   
    24   11   71 1    
    25   12   13 ar   
    26   12   82 1    
    27   13   14 ar   
    28   13   15 1    
    29   14   83 1    
    30   15   16 1    
    31   15   84 1    
    32   15   85 1    
    33   16   17 1    
    34   17   18 1    
    35   17   86 1    
    36   17   87 1    
    37   18   19 1    
    38   18   37 1    
    39   18   88 1    
    40   19   20 am   BACKBONE|DICT|INTERRES
    41   19   89 1    
    42   20   21 2    
    43   20   22 1    
    44   22   23 1    
    45   22   24 1    
    46   22   90 1    
    47   23   91 1    
    48   23   92 1    
    49   23   93 1    
    50   24   25 am   BACKBONE|DICT|INTERRES
    51   24   94 1    
    52   25   26 2    
    53   25   27 1    
    54   27   28 1    
    55   27   29 1    
    56   27   95 1    
    57   28   96 1    
    58   28   97 1    
    59   28   98 1    
    60   29   30 am   BACKBONE|DICT|INTERRES
    61   29   99 1    
    62   30   31 2    
    63   30   32 1    
    64   32   33 1    
    65   32   34 1    
    66   32  100 1    
    67   33  101 1    
    68   33  102 1    
    69   33  103 1    
    70   34   35 am   BACKBONE|DICT|INTERRES
    71   34  104 1    
    72   35   36 2    
    73   37   38 2    
    74   37   39 am   BACKBONE|DICT|INTERRES
    75   39   40 1    
    76   39  105 1    
    77   40   41 1    
    78   40   42 1    
    79   40  106 1    
    80   41  107 1    
    81   41  108 1    
    82   41  109 1    
    83   42   43 2    
    84   42   44 am   BACKBONE|DICT|INTERRES
    85   44   45 1    
    86   44  110 1    
    87   45   46 1    
    88   45   47 1    
    89   45  111 1    
    90   46  112 1    
    91   46  113 1    
    92   46  114 1    
    93   47   48 2    
    94   47   49 am   BACKBONE|DICT|INTERRES
    95   49   50 1    
    96   49  115 1    
    97   50   51 1    
    98   50   52 1    
    99   50  116 1    
   100   51  117 1    
   101   51  118 1    
   102   51  119 1    
   103   52   53 2    
   104   52   54 am   BACKBONE|DICT|INTERRES
   105   54   55 1    
   106   54  120 1    
   107   55   56 1    
   108   55   57 1    
   109   55  121 1    
   110   56  122 1    
   111   56  123 1    
   112   56  124 1    
   113   57   58 2    
   114   57   59 am   BACKBONE|DICT|INTERRES
   115   59   60 1    
   116   59  125 1    
   117   60   61 1    
   118   60   62 1    
   119   60  126 1    
   120   61  127 1    
   121   61  128 1    
   122   61  129 1    
   123   62   63 2    
   124   62   64 am   BACKBONE|DICT|INTERRES
   125   64   65 1    
   126   64  130 1    
   127   65   66 1    
   128   65   69 1    
   129   65  131 1    
   130   66   67 am   BACKBONE|DICT|INTERRES
   131   66   68 2    
   132   67  132 1    
   133   67  133 1    
   134   69   70 1    
   135   69  134 1    
   136   69  135 1    
   137   70   71 1    
   138   71  136 1    
   139   71  137 1    
@<TRIPOS>SUBSTRUCTURE
     1 UNK         1 GROUP             0       ****    0 ROOT    
