@<TRIPOS>MOLECULE
3R137
137   139    1
SMALL
USER_CHARGES


@<TRIPOS>ATOM
      1 CA         26.1576   -6.3655   -5.2091 C.3       0 UNK        -0.2020 
      2 C          26.3567   -5.5904   -3.9161 C.2       0 UNK         0.4855 
      3 O          25.3770   -5.2305   -3.2625 O.2       0 UNK        -0.5197 
      4 N          27.6160   -5.3170   -3.5468 N.am      1 UNK        -0.4892 
      5 CA         27.9983   -4.5345   -2.3654 C.3       1 UNK         0.0835 
      6 C6         29.5332   -4.5237   -2.1732 C.3       12 UNK        -0.0855 
      7 S7         30.0178   -4.0395   -0.4859 S.3       12 UNK        -0.2931 
      8 C8         31.7690   -3.5922   -0.7392 C.3       12 UNK         0.0378 
      9 C9         31.9779   -2.2994   -1.5266 C.ar      12 UNK        -0.0802 
     10 C10        32.9783   -2.2349   -2.5033 C.ar      12 UNK        -0.0944 
     11 C11        33.2421   -1.0374   -3.1767 C.ar      12 UNK        -0.0787 
     12 C12        32.4905    0.1008   -2.8731 C.ar      12 UNK        -0.0862 
     13 C13        31.4828    0.0525   -1.9049 C.ar      12 UNK        -0.0733 
     14 C14        31.2336   -1.1498   -1.2351 C.ar      12 UNK        -0.0832 
     15 C15        30.7014    1.3096   -1.5384 C.3       12 UNK         0.0240 
     16 S16        29.9031    2.1045   -2.9708 S.3       12 UNK        -0.2522 
     17 C17        28.6289    0.8785   -3.4107 C.3       12 UNK        -0.0967 
     18 CA         28.3075    0.8805   -4.9257 C.3       5 UNK         0.0660 
     19 N          27.7720   -0.4135   -5.3604 N.am      5 UNK        -0.4015 
     20 C          27.4264   -0.7458   -6.6131 C.2       4 UNK         0.4946 
     21 O          27.5139    0.0134   -7.5767 O.2       4 UNK        -0.5353 
     22 CA         26.8143   -2.1403   -6.8089 C.3       4 UNK         0.0277 
     23 CB         27.8879   -3.2394   -6.7674 C.3       4 UNK        -0.1981 
     24 N          25.7938   -2.3999   -5.7937 N.am      4 UNK        -0.4209 
     25 C          24.5446   -1.9151   -5.8434 C.2       3 UNK         0.4942 
     26 O          24.0856   -1.3014   -6.8065 O.2       3 UNK        -0.5208 
     27 CA         23.6590   -2.1294   -4.6035 C.3       3 UNK         0.0250 
     28 CB         22.8047   -3.3973   -4.7609 C.3       3 UNK        -0.1990 
     29 N          24.4245   -2.2001   -3.3548 N.am      3 UNK        -0.4232 
     30 C          25.0498   -1.1507   -2.7988 C.2       2 UNK         0.4993 
     31 O          25.0364   -0.0172   -3.2771 O.2       2 UNK        -0.5286 
     32 CA         25.8802   -1.4155   -1.5295 C.3       2 UNK         0.0209 
     33 CB         24.9988   -1.3038   -0.2759 C.3       2 UNK        -0.1931 
     34 N          26.5692   -2.7102   -1.5325 N.am      2 UNK        -0.4546 
     35 C          27.4381   -3.1043   -2.4730 C.2       1 UNK         0.5154 
     36 O          27.7625   -2.4075   -3.4360 O.2       1 UNK        -0.5181 
     37 C          27.3937    2.0646   -5.3098 C.2       5 UNK         0.5014 
     38 O          27.8968    3.1047   -5.7349 O.2       5 UNK        -0.5248 
     39 N          26.0690    1.8698   -5.2213 N.am      6 UNK        -0.4434 
     40 CA         25.0394    2.8161   -5.6630 C.3       6 UNK         0.0363 
     41 CB         23.6531    2.2506   -5.3150 C.3       6 UNK        -0.1936 
     42 C          25.1018    3.1899   -7.1585 C.2       6 UNK         0.5081 
     43 O          24.6293    4.2687   -7.5180 O.2       6 UNK        -0.5248 
     44 N          25.6863    2.3246   -8.0007 N.am      7 UNK        -0.4718 
     45 CA         25.9261    2.5917   -9.4221 C.3       7 UNK         0.0273 
     46 CB         25.8603    1.2689  -10.2055 C.3       7 UNK        -0.1935 
     47 C          27.2674    3.3061   -9.6755 C.2       7 UNK         0.5018 
     48 O          27.5346    3.6666  -10.8226 O.2       7 UNK        -0.5186 
     49 N          28.0967    3.4781   -8.6325 N.am      8 UNK        -0.4240 
     50 CA         29.4172    4.1264   -8.5775 C.3       8 UNK         0.0235 
     51 CB         29.3259    5.6145   -8.9668 C.3       8 UNK        -0.2000 
     52 C          30.5353    3.4189   -9.3652 C.2       8 UNK         0.4941 
     53 O          31.6597    3.3368   -8.8709 O.2       8 UNK        -0.5273 
     54 N          30.2220    2.9277  -10.5679 N.am      9 UNK        -0.4262 
     55 CA         31.1440    2.2539  -11.4833 C.3       9 UNK         0.0264 
     56 CB         30.5859    2.3782  -12.9116 C.3       9 UNK        -0.1955 
     57 C          31.4085    0.7764  -11.1360 C.2       9 UNK         0.5031 
     58 O          32.2798    0.1726  -11.7650 O.2       9 UNK        -0.5390 
     59 N          30.6572    0.2096  -10.1837 N.am      10 UNK        -0.4204 
     60 CA         30.7376   -1.1899   -9.7700 C.3       10 UNK         0.0237 
     61 CB         29.4115   -1.8846  -10.1275 C.3       10 UNK        -0.1985 
     62 C          31.0233   -1.2918   -8.2655 C.2       10 UNK         0.4970 
     63 O          30.7651   -0.3460   -7.5193 O.2       10 UNK        -0.4914 
     64 N          31.5264   -2.4622   -7.8651 N.am      11 UNK        -0.4285 
     65 CA         31.8116   -2.8826   -6.4870 C.3       11 UNK         0.1007 
     66 C          31.3588   -4.3551   -6.2855 C.2       11 UNK         0.5703 
     67 N          31.3944   -4.8540   -5.0581 N.am      11 UNK        -0.7361 
     68 O          30.9904   -5.0582   -7.2259 O.2       11 UNK        -0.4986 
     69 C69        33.3146   -2.7047   -6.1312 C.3       12 UNK        -0.0947 
     70 S70        33.7926   -0.9602   -5.9095 S.3       12 UNK        -0.2240 
     71 C71        34.3796   -0.9474   -4.1859 C.3       12 UNK         0.0194 
     72 H72        27.1046   -6.6079   -5.6909 H         1 UNK         0.0906 
     73 H73        25.6301   -7.2977   -5.0088 H         1 UNK         0.0906 
     74 H74        25.5607   -5.7802   -5.9081 H         1 UNK         0.0906 
     75 H75        28.3787   -5.6197   -4.1350 H         1 UNK         0.3140 
     76 H76        27.5453   -5.0281   -1.5026 H         1 UNK         0.1085 
     77 H77        30.0100   -3.8600   -2.8965 H         1 UNK         0.0836 
     78 H78        29.9433   -5.5190   -2.3520 H         1 UNK         0.0836 
     79 H79        32.2752   -4.4283   -1.2247 H         1 UNK         0.0731 
     80 H80        32.2400   -3.4761    0.2377 H         1 UNK         0.0731 
     81 H81        33.5783   -3.1092   -2.7160 H         1 UNK         0.1312 
     82 H82        32.6995    1.0316   -3.3829 H         1 UNK         0.1406 
     83 H83        30.4733   -1.1878   -0.4667 H         1 UNK         0.1631 
     84 H84        31.3874    2.0241   -1.0816 H         1 UNK         0.0717 
     85 H85        29.9395    1.0933   -0.7878 H         1 UNK         0.0717 
     86 H86        29.0015   -0.1034   -3.1167 H         1 UNK         0.0934 
     87 H87        27.7351    1.0527   -2.8092 H         1 UNK         0.0934 
     88 H88        29.2427    1.0045   -5.4768 H         1 UNK         0.0739 
     89 H89        27.6965   -1.1281   -4.6372 H         1 UNK         0.3093 
     90 H90        26.3472   -2.1656   -7.7961 H         1 UNK         0.0818 
     91 H91        28.4056   -3.2774   -5.8094 H         1 UNK         0.0819 
     92 H92        27.4564   -4.2220   -6.9555 H         1 UNK         0.0819 
     93 H93        28.6423   -3.0717   -7.5344 H         1 UNK         0.0819 
     94 H94        26.1044   -2.8409   -4.9387 H         1 UNK         0.3041 
     95 H95        22.9837   -1.2735   -4.5337 H         1 UNK         0.0784 
     96 H96        22.1809   -3.3368   -5.6539 H         1 UNK         0.0793 
     97 H97        23.4194   -4.2928   -4.8553 H         1 UNK         0.0793 
     98 H98        22.1378   -3.5357   -3.9098 H         1 UNK         0.0793 
     99 H99        24.5293   -3.1151   -2.9322 H         1 UNK         0.3024 
    100 H100       26.6461   -0.6397   -1.4762 H         1 UNK         0.1171 
    101 H101       25.5916   -1.3871    0.6353 H         1 UNK         0.0786 
    102 H102       24.4904   -0.3390   -0.2416 H         1 UNK         0.0786 
    103 H103       24.2309   -2.0780   -0.2502 H         1 UNK         0.0786 
    104 H104       26.3381   -3.3480   -0.7840 H         1 UNK         0.2977 
    105 H105       25.7344    1.0196   -4.7748 H         1 UNK         0.3127 
    106 H106       25.1843    3.7380   -5.0964 H         1 UNK         0.0770 
    107 H107       23.4718    1.2975   -5.8135 H         1 UNK         0.0814 
    108 H108       22.8612    2.9357   -5.6208 H         1 UNK         0.0814 
    109 H109       23.5458    2.0936   -4.2416 H         1 UNK         0.0814 
    110 H110       26.0914    1.4674   -7.6353 H         1 UNK         0.2983 
    111 H111       25.1379    3.2441   -9.8043 H         1 UNK         0.0947 
    112 H112       25.9106    1.4509  -11.2799 H         1 UNK         0.0806 
    113 H113       24.9291    0.7365  -10.0111 H         1 UNK         0.0806 
    114 H114       26.6863    0.6037   -9.9541 H         1 UNK         0.0806 
    115 H115       27.7792    3.1339   -7.7310 H         1 UNK         0.3000 
    116 H116       29.7132    4.0844   -7.5279 H         1 UNK         0.0850 
    117 H117       30.2869    6.1118   -8.8286 H         1 UNK         0.0810 
    118 H118       28.5975    6.1404   -8.3496 H         1 UNK         0.0810 
    119 H119       29.0404    5.7481  -10.0107 H         1 UNK         0.0810 
    120 H120       29.2687    3.0793  -10.8928 H         1 UNK         0.3040 
    121 H121       32.1059    2.7698  -11.4476 H         1 UNK         0.0766 
    122 H122       30.4580    3.4222  -13.1982 H         1 UNK         0.0812 
    123 H123       29.6194    1.8822  -13.0105 H         1 UNK         0.0812 
    124 H124       31.2614    1.9255  -13.6390 H         1 UNK         0.0812 
    125 H125       30.0319    0.7911   -9.6427 H         1 UNK         0.3205 
    126 H126       31.5484   -1.6976  -10.2969 H         1 UNK         0.0754 
    127 H127       29.4348   -2.9429   -9.8654 H         1 UNK         0.0769 
    128 H128       29.2118   -1.8241  -11.1976 H         1 UNK         0.0769 
    129 H129       28.5659   -1.4342   -9.6069 H         1 UNK         0.0769 
    130 H130       31.6379   -3.2031   -8.5439 H         1 UNK         0.2981 
    131 H131       31.2049   -2.2858   -5.8024 H         1 UNK         0.0541 
    132 H132       31.7209   -4.3013   -4.2831 H         1 UNK         0.3459 
    133 H133       31.1430   -5.8198   -4.9220 H         1 UNK         0.3459 
    134 H134       33.5706   -3.2463   -5.2201 H         1 UNK         0.0612 
    135 H135       33.9434   -3.1350   -6.9125 H         1 UNK         0.0612 
    136 H136       34.9337   -0.0228   -4.0177 H         1 UNK         0.0624 
    137 H137       35.0963   -1.7569   -4.0385 H         1 UNK         0.0624 
@<TRIPOS>BOND
     1    1    2 1    
     2    1   72 1    
     3    1   73 1    
     4    1   74 1    
     5    2    3 2    
     6    2    4 am   BACKBONE|DICT|INTERRES
     7    4    5 1    
     8    4   75 1    
     9    5    6 1    
    10    5   35 1    
    11    5   76 1    
    12    6    7 1    
    13    6   77 1    
    14    6   78 1    
    15    7    8 1    
    16    8    9 1    
    17    8   79 1    
    18    8   80 1    
    19    9   10 ar   
    20    9   14 ar   
    21   10   11 ar   
    22   10   81 1    
    23   11   12 ar   
    24   11   71 1    
    25   12   13 ar   
    26   12   82 1    
    27   13   14 ar   
    28   13   15 1    
    29   14   83 1    
    30   15   16 1    
    31   15   84 1    
    32   15   85 1    
    33   16   17 1    
    34   17   18 1    
    35   17   86 1    
    36   17   87 1    
    37   18   19 1    
    38   18   37 1    
    39   18   88 1    
    40   19   20 am   BACKBONE|DICT|INTERRES
    41   19   89 1    
    42   20   21 2    
    43   20   22 1    
    44   22   23 1    
    45   22   24 1    
    46   22   90 1    
    47   23   91 1    
    48   23   92 1    
    49   23   93 1    
    50   24   25 am   BACKBONE|DICT|INTERRES
    51   24   94 1    
    52   25   26 2    
    53   25   27 1    
    54   27   28 1    
    55   27   29 1    
    56   27   95 1    
    57   28   96 1    
    58   28   97 1    
    59   28   98 1    
    60   29   30 am   BACKBONE|DICT|INTERRES
    61   29   99 1    
    62   30   31 2    
    63   30   32 1    
    64   32   33 1    
    65   32   34 1    
    66   32  100 1    
    67   33  101 1    
    68   33  102 1    
    69   33  103 1    
    70   34   35 am   BACKBONE|DICT|INTERRES
    71   34  104 1    
    72   35   36 2    
    73   37   38 2    
    74   37   39 am   BACKBONE|DICT|INTERRES
    75   39   40 1    
    76   39  105 1    
    77   40   41 1    
    78   40   42 1    
    79   40  106 1    
    80   41  107 1    
    81   41  108 1    
    82   41  109 1    
    83   42   43 2    
    84   42   44 am   BACKBONE|DICT|INTERRES
    85   44   45 1    
    86   44  110 1    
    87   45   46 1    
    88   45   47 1    
    89   45  111 1    
    90   46  112 1    
    91   46  113 1    
    92   46  114 1    
    93   47   48 2    
    94   47   49 am   BACKBONE|DICT|INTERRES
    95   49   50 1    
    96   49  115 1    
    97   50   51 1    
    98   50   52 1    
    99   50  116 1    
   100   51  117 1    
   101   51  118 1    
   102   51  119 1    
   103   52   53 2    
   104   52   54 am   BACKBONE|DICT|INTERRES
   105   54   55 1    
   106   54  120 1    
   107   55   56 1    
   108   55   57 1    
   109   55  121 1    
   110   56  122 1    
   111   56  123 1    
   112   56  124 1    
   113   57   58 2    
   114   57   59 am   BACKBONE|DICT|INTERRES
   115   59   60 1    
   116   59  125 1    
   117   60   61 1    
   118   60   62 1    
   119   60  126 1    
   120   61  127 1    
   121   61  128 1    
   122   61  129 1    
   123   62   63 2    
   124   62   64 am   BACKBONE|DICT|INTERRES
   125   64   65 1    
   126   64  130 1    
   127   65   66 1    
   128   65   69 1    
   129   65  131 1    
   130   66   67 am   BACKBONE|DICT|INTERRES
   131   66   68 2    
   132   67  132 1    
   133   67  133 1    
   134   69   70 1    
   135   69  134 1    
   136   69  135 1    
   137   70   71 1    
   138   71  136 1    
   139   71  137 1    
@<TRIPOS>SUBSTRUCTURE
     1 UNK         1 GROUP             0       ****    0 ROOT    
