@<TRIPOS>MOLECULE
3R137
137   139    1
SMALL
USER_CHARGES


@<TRIPOS>ATOM
      1 CA         27.7009   -6.1088    0.2527 C.3       0 UNK        -0.2020 
      2 C          27.6331   -5.6450   -1.1987 C.2       0 UNK         0.4855 
      3 O          27.3551   -6.4577   -2.0774 O.2       0 UNK        -0.5197 
      4 N          27.8708   -4.3638   -1.5085 N.am      1 UNK        -0.4892 
      5 CA         28.1908   -3.2600   -0.5869 C.3       1 UNK         0.0835 
      6 C6         29.6267   -2.7087   -0.8011 C.3       12 UNK        -0.0855 
      7 S7         30.9013   -3.9777   -0.4688 S.3       12 UNK        -0.2931 
      8 C8         32.2536   -3.4838   -1.5978 C.3       12 UNK         0.0378 
      9 C9         32.0100   -3.6909   -3.0957 C.ar      12 UNK        -0.0802 
     10 C10        33.0139   -3.2966   -3.9864 C.ar      12 UNK        -0.0944 
     11 C11        32.8357   -3.4164   -5.3672 C.ar      12 UNK        -0.0787 
     12 C12        31.6302   -3.9186   -5.8644 C.ar      12 UNK        -0.0862 
     13 C13        30.6150   -4.3176   -4.9911 C.ar      12 UNK        -0.0733 
     14 C14        30.8268   -4.2346   -3.6127 C.ar      12 UNK        -0.0832 
     15 C15        29.2736   -4.7955   -5.5383 C.3       12 UNK         0.0240 
     16 S16        27.8611   -3.8111   -4.9198 S.3       12 UNK        -0.2522 
     17 C17        28.3634   -2.1017   -5.3154 C.3       12 UNK        -0.0967 
     18 CA         27.5631   -1.4801   -6.4823 C.3       5 UNK         0.0660 
     19 N          26.1280   -1.3769   -6.2000 N.am      5 UNK        -0.4015 
     20 C          25.1958   -1.1154   -7.1297 C.2       4 UNK         0.4946 
     21 O          25.4484   -0.9794   -8.3259 O.2       4 UNK        -0.5353 
     22 CA         23.7451   -0.9212   -6.6504 C.3       4 UNK         0.0277 
     23 CB         23.0243   -2.2751   -6.5553 C.3       4 UNK        -0.1981 
     24 N          23.6503   -0.2250   -5.3658 N.am      4 UNK        -0.4209 
     25 C          24.1153    1.0100   -5.1282 C.2       3 UNK         0.4942 
     26 O          24.5663    1.7447   -6.0057 O.2       3 UNK        -0.5208 
     27 CA         24.1423    1.4924   -3.6649 C.3       3 UNK         0.0250 
     28 CB         22.9628    2.4396   -3.3943 C.3       3 UNK        -0.1990 
     29 N          24.1476    0.4219   -2.6575 N.am      3 UNK        -0.4232 
     30 C          25.0485   -0.5681   -2.5694 C.2       2 UNK         0.4993 
     31 O          25.9784   -0.7186   -3.3663 O.2       2 UNK        -0.5286 
     32 CA         24.8083   -1.5976   -1.4526 C.3       2 UNK         0.0209 
     33 CB         23.5768   -2.4631   -1.7755 C.3       2 UNK        -0.1931 
     34 N          25.9534   -2.4878   -1.2590 N.am      2 UNK        -0.4546 
     35 C          27.1140   -2.1551   -0.6761 C.2       1 UNK         0.5154 
     36 O          27.3328   -1.0430   -0.1923 O.2       1 UNK        -0.5181 
     37 C          28.1575   -0.1067   -6.8425 C.2       5 UNK         0.5014 
     38 O          29.0064   -0.0266   -7.7319 O.2       5 UNK        -0.5248 
     39 N          27.7061    0.9508   -6.1511 N.am      6 UNK        -0.4434 
     40 CA         28.1030    2.3336   -6.4190 C.3       6 UNK         0.0363 
     41 CB         27.6203    3.2601   -5.2926 C.3       6 UNK        -0.1936 
     42 C          27.6092    2.8105   -7.7933 C.2       6 UNK         0.5081 
     43 O          28.3919    3.3818   -8.5509 O.2       6 UNK        -0.5248 
     44 N          26.3446    2.5101   -8.1170 N.am      7 UNK        -0.4718 
     45 CA         25.7438    2.7612   -9.4285 C.3       7 UNK         0.0273 
     46 CB         24.2458    2.4214   -9.3781 C.3       7 UNK        -0.1935 
     47 C          26.4390    1.9935  -10.5675 C.2       7 UNK         0.5018 
     48 O          26.6128    2.5542  -11.6503 O.2       7 UNK        -0.5186 
     49 N          26.8252    0.7371  -10.3041 N.am      8 UNK        -0.4240 
     50 CA         27.5191   -0.1274  -11.2562 C.3       8 UNK         0.0235 
     51 CB         27.4355   -1.5917  -10.7940 C.3       8 UNK        -0.2000 
     52 C          28.9820    0.2746  -11.5005 C.2       8 UNK         0.4941 
     53 O          29.3797    0.3704  -12.6629 O.2       8 UNK        -0.5273 
     54 N          29.7683    0.4459  -10.4265 N.am      9 UNK        -0.4262 
     55 CA         31.2322    0.4924  -10.5132 C.3       9 UNK         0.0264 
     56 CB         31.7782   -0.9460  -10.3944 C.3       9 UNK        -0.1955 
     57 C          31.9069    1.4379   -9.5053 C.2       9 UNK         0.5031 
     58 O          33.1220    1.3335   -9.3334 O.2       9 UNK        -0.5390 
     59 N          31.1549    2.3334   -8.8466 N.am      10 UNK        -0.4204 
     60 CA         31.5994    3.3330   -7.8541 C.3       10 UNK         0.0237 
     61 CB         32.6251    4.3158   -8.4542 C.3       10 UNK        -0.1985 
     62 C          32.1002    2.7636   -6.5105 C.2       10 UNK         0.4970 
     63 O          31.8794    3.4010   -5.4807 O.2       10 UNK        -0.4914 
     64 N          32.7429    1.5918   -6.5282 N.am      11 UNK        -0.4285 
     65 CA         33.2460    0.8566   -5.3574 C.3       11 UNK         0.1007 
     66 C          32.1621    0.3205   -4.3781 C.2       11 UNK         0.5703 
     67 N          30.8965    0.2413   -4.7675 N.am      11 UNK        -0.7361 
     68 O          32.4748    0.0049   -3.2329 O.2       11 UNK        -0.4986 
     69 C69        34.2626   -0.2417   -5.7705 C.3       12 UNK        -0.0947 
     70 S70        33.6477   -1.3788   -7.0639 S.3       12 UNK        -0.2240 
     71 C71        33.9440   -3.0142   -6.3273 C.3       12 UNK         0.0194 
     72 H72        27.5389   -7.1845    0.3186 H         1 UNK         0.0906 
     73 H73        28.6790   -5.8960    0.6835 H         1 UNK         0.0906 
     74 H74        26.9334   -5.6200    0.8523 H         1 UNK         0.0906 
     75 H75        27.8157   -4.0960   -2.4838 H         1 UNK         0.3140 
     76 H76        28.1339   -3.5955    0.4488 H         1 UNK         0.1085 
     77 H77        29.8250   -1.8693   -0.1318 H         1 UNK         0.0836 
     78 H78        29.7390   -2.3193   -1.8145 H         1 UNK         0.0836 
     79 H79        32.4834   -2.4317   -1.4203 H         1 UNK         0.0731 
     80 H80        33.1453   -4.0449   -1.3152 H         1 UNK         0.0731 
     81 H81        33.9368   -2.8848   -3.6013 H         1 UNK         0.1312 
     82 H82        31.4817   -3.9847   -6.9337 H         1 UNK         0.1406 
     83 H83        30.0414   -4.5649   -2.9532 H         1 UNK         0.1631 
     84 H84        29.1258   -5.8393   -5.2581 H         1 UNK         0.0717 
     85 H85        29.2664   -4.7633   -6.6289 H         1 UNK         0.0717 
     86 H86        28.2519   -1.5057   -4.4082 H         1 UNK         0.0934 
     87 H87        29.4282   -2.0798   -5.5488 H         1 UNK         0.0934 
     88 H88        27.6867   -2.1249   -7.3549 H         1 UNK         0.0739 
     89 H89        25.8667   -1.4121   -5.2193 H         1 UNK         0.3093 
     90 H90        23.2315   -0.3100   -7.3955 H         1 UNK         0.0818 
     91 H91        21.9717   -2.1483   -6.3013 H         1 UNK         0.0819 
     92 H92        23.0639   -2.8043   -7.5086 H         1 UNK         0.0819 
     93 H93        23.4768   -2.9238   -5.8039 H         1 UNK         0.0819 
     94 H94        23.2859   -0.7522   -4.5867 H         1 UNK         0.3041 
     95 H95        25.0681    2.0564   -3.5357 H         1 UNK         0.0784 
     96 H96        22.9496    3.2618   -4.1116 H         1 UNK         0.0793 
     97 H97        22.0045    1.9243   -3.4721 H         1 UNK         0.0793 
     98 H98        23.0278    2.8829   -2.4004 H         1 UNK         0.0793 
     99 H99        23.4057    0.4571   -1.9726 H         1 UNK         0.3024 
    100 H100       24.6324   -1.0545   -0.5211 H         1 UNK         0.1171 
    101 H101       23.3885   -3.1924   -0.9871 H         1 UNK         0.0786 
    102 H102       22.6744   -1.8575   -1.8680 H         1 UNK         0.0786 
    103 H103       23.7011   -3.0092   -2.7119 H         1 UNK         0.0786 
    104 H104       25.8724   -3.4185   -1.6415 H         1 UNK         0.2977 
    105 H105       26.9982    0.8033   -5.4454 H         1 UNK         0.3127 
    106 H106       29.1924    2.3642   -6.4261 H         1 UNK         0.0770 
    107 H107       26.5332    3.3109   -5.2388 H         1 UNK         0.0814 
    108 H108       27.9830    4.2767   -5.4495 H         1 UNK         0.0814 
    109 H109       27.9918    2.9315   -4.3218 H         1 UNK         0.0814 
    110 H110       25.7476    2.0847   -7.4101 H         1 UNK         0.2983 
    111 H111       25.8469    3.8277   -9.6400 H         1 UNK         0.0947 
    112 H112       23.7645    2.6333  -10.3338 H         1 UNK         0.0806 
    113 H113       23.7313    3.0088   -8.6172 H         1 UNK         0.0806 
    114 H114       24.0792    1.3672   -9.1543 H         1 UNK         0.0806 
    115 H115       26.5688    0.3237   -9.4131 H         1 UNK         0.3000 
    116 H116       26.9964   -0.0549  -12.2126 H         1 UNK         0.0850 
    117 H117       27.9479   -2.2533  -11.4938 H         1 UNK         0.0810 
    118 H118       26.4004   -1.9279  -10.7311 H         1 UNK         0.0810 
    119 H119       27.8931   -1.7345   -9.8148 H         1 UNK         0.0810 
    120 H120       29.3769    0.3244   -9.4922 H         1 UNK         0.3040 
    121 H121       31.5263    0.8819  -11.4899 H         1 UNK         0.0766 
    122 H122       31.5238   -1.3879   -9.4301 H         1 UNK         0.0812 
    123 H123       32.8645   -0.9729  -10.4899 H         1 UNK         0.0812 
    124 H124       31.3749   -1.5912  -11.1748 H         1 UNK         0.0812 
    125 H125       30.1594    2.3610   -9.0431 H         1 UNK         0.3205 
    126 H126       30.7147    3.9222   -7.6138 H         1 UNK         0.0754 
    127 H127       32.8432    5.1233   -7.7540 H         1 UNK         0.0769 
    128 H128       32.2467    4.7739   -9.3680 H         1 UNK         0.0769 
    129 H129       33.5728    3.8304   -8.6885 H         1 UNK         0.0769 
    130 H130       32.9228    1.1671   -7.4334 H         1 UNK         0.2981 
    131 H131       33.8071    1.5862   -4.7706 H         1 UNK         0.0541 
    132 H132       30.6407    0.4815   -5.7112 H         1 UNK         0.3459 
    133 H133       30.2085   -0.0761   -4.1066 H         1 UNK         0.3459 
    134 H134       34.5981   -0.8066   -4.8993 H         1 UNK         0.0612 
    135 H135       35.1598    0.2353   -6.1675 H         1 UNK         0.0612 
    136 H136       34.9164   -3.0279   -5.8326 H         1 UNK         0.0624 
    137 H137       34.0049   -3.7488   -7.1315 H         1 UNK         0.0624 
@<TRIPOS>BOND
     1    1    2 1    
     2    1   72 1    
     3    1   73 1    
     4    1   74 1    
     5    2    3 2    
     6    2    4 am   BACKBONE|DICT|INTERRES
     7    4    5 1    
     8    4   75 1    
     9    5    6 1    
    10    5   35 1    
    11    5   76 1    
    12    6    7 1    
    13    6   77 1    
    14    6   78 1    
    15    7    8 1    
    16    8    9 1    
    17    8   79 1    
    18    8   80 1    
    19    9   10 ar   
    20    9   14 ar   
    21   10   11 ar   
    22   10   81 1    
    23   11   12 ar   
    24   11   71 1    
    25   12   13 ar   
    26   12   82 1    
    27   13   14 ar   
    28   13   15 1    
    29   14   83 1    
    30   15   16 1    
    31   15   84 1    
    32   15   85 1    
    33   16   17 1    
    34   17   18 1    
    35   17   86 1    
    36   17   87 1    
    37   18   19 1    
    38   18   37 1    
    39   18   88 1    
    40   19   20 am   BACKBONE|DICT|INTERRES
    41   19   89 1    
    42   20   21 2    
    43   20   22 1    
    44   22   23 1    
    45   22   24 1    
    46   22   90 1    
    47   23   91 1    
    48   23   92 1    
    49   23   93 1    
    50   24   25 am   BACKBONE|DICT|INTERRES
    51   24   94 1    
    52   25   26 2    
    53   25   27 1    
    54   27   28 1    
    55   27   29 1    
    56   27   95 1    
    57   28   96 1    
    58   28   97 1    
    59   28   98 1    
    60   29   30 am   BACKBONE|DICT|INTERRES
    61   29   99 1    
    62   30   31 2    
    63   30   32 1    
    64   32   33 1    
    65   32   34 1    
    66   32  100 1    
    67   33  101 1    
    68   33  102 1    
    69   33  103 1    
    70   34   35 am   BACKBONE|DICT|INTERRES
    71   34  104 1    
    72   35   36 2    
    73   37   38 2    
    74   37   39 am   BACKBONE|DICT|INTERRES
    75   39   40 1    
    76   39  105 1    
    77   40   41 1    
    78   40   42 1    
    79   40  106 1    
    80   41  107 1    
    81   41  108 1    
    82   41  109 1    
    83   42   43 2    
    84   42   44 am   BACKBONE|DICT|INTERRES
    85   44   45 1    
    86   44  110 1    
    87   45   46 1    
    88   45   47 1    
    89   45  111 1    
    90   46  112 1    
    91   46  113 1    
    92   46  114 1    
    93   47   48 2    
    94   47   49 am   BACKBONE|DICT|INTERRES
    95   49   50 1    
    96   49  115 1    
    97   50   51 1    
    98   50   52 1    
    99   50  116 1    
   100   51  117 1    
   101   51  118 1    
   102   51  119 1    
   103   52   53 2    
   104   52   54 am   BACKBONE|DICT|INTERRES
   105   54   55 1    
   106   54  120 1    
   107   55   56 1    
   108   55   57 1    
   109   55  121 1    
   110   56  122 1    
   111   56  123 1    
   112   56  124 1    
   113   57   58 2    
   114   57   59 am   BACKBONE|DICT|INTERRES
   115   59   60 1    
   116   59  125 1    
   117   60   61 1    
   118   60   62 1    
   119   60  126 1    
   120   61  127 1    
   121   61  128 1    
   122   61  129 1    
   123   62   63 2    
   124   62   64 am   BACKBONE|DICT|INTERRES
   125   64   65 1    
   126   64  130 1    
   127   65   66 1    
   128   65   69 1    
   129   65  131 1    
   130   66   67 am   BACKBONE|DICT|INTERRES
   131   66   68 2    
   132   67  132 1    
   133   67  133 1    
   134   69   70 1    
   135   69  134 1    
   136   69  135 1    
   137   70   71 1    
   138   71  136 1    
   139   71  137 1    
@<TRIPOS>SUBSTRUCTURE
     1 UNK         1 GROUP             0       ****    0 ROOT    
