@<TRIPOS>MOLECULE
3R137
137   139    1
SMALL
USER_CHARGES


@<TRIPOS>ATOM
      1 CA         28.1854   -7.1414   -2.3806 C.3       0 UNK        -0.2020 
      2 C          27.6801   -6.1857   -1.3105 C.2       0 UNK         0.4855 
      3 O          26.7694   -6.5319   -0.5581 O.2       0 UNK        -0.5197 
      4 N          28.2678   -4.9844   -1.2391 N.am      1 UNK        -0.4892 
      5 CA         27.9366   -3.9244   -0.2730 C.3       1 UNK         0.0835 
      6 C6         28.9872   -2.7809   -0.2566 C.3       12 UNK        -0.0855 
      7 S7         30.7137   -3.3705   -0.1190 S.3       12 UNK        -0.2931 
      8 C8         31.6046   -2.2068   -1.2132 C.3       12 UNK         0.0378 
      9 C9         31.6968   -2.6475   -2.6746 C.ar      12 UNK        -0.0802 
     10 C10        32.8778   -2.4165   -3.3882 C.ar      12 UNK        -0.0944 
     11 C11        32.9701   -2.7466   -4.7432 C.ar      12 UNK        -0.0787 
     12 C12        31.8772   -3.3375   -5.3834 C.ar      12 UNK        -0.0862 
     13 C13        30.6837   -3.5612   -4.6938 C.ar      12 UNK        -0.0733 
     14 C14        30.6074   -3.2180   -3.3412 C.ar      12 UNK        -0.0832 
     15 C15        29.4679   -4.1163   -5.4353 C.3       12 UNK         0.0240 
     16 S16        27.9070   -3.2361   -5.0617 S.3       12 UNK        -0.2522 
     17 C17        28.3966   -1.4834   -5.2319 C.3       12 UNK        -0.0967 
     18 CA         27.6528   -0.7339   -6.3575 C.3       5 UNK         0.0660 
     19 N          26.2020   -0.6984   -6.1490 N.am      5 UNK        -0.4015 
     20 C          25.3130   -0.2389   -7.0440 C.2       4 UNK         0.4946 
     21 O          25.6324    0.2073   -8.1467 O.2       4 UNK        -0.5353 
     22 CA         23.8292   -0.2158   -6.6389 C.3       4 UNK         0.0277 
     23 CB         23.1182   -1.4720   -7.1655 C.3       4 UNK        -0.1981 
     24 N          23.6057   -0.0988   -5.1957 N.am      4 UNK        -0.4209 
     25 C          24.0242    0.9142   -4.4215 C.2       3 UNK         0.4942 
     26 O          24.6258    1.8998   -4.8492 O.2       3 UNK        -0.5208 
     27 CA         23.7834    0.7699   -2.9069 C.3       3 UNK         0.0250 
     28 CB         22.4486    1.4195   -2.5095 C.3       3 UNK        -0.1990 
     29 N          23.8119   -0.6233   -2.4387 N.am      3 UNK        -0.4232 
     30 C          24.8764   -1.4316   -2.5394 C.2       2 UNK         0.4993 
     31 O          25.9484   -1.0841   -3.0382 O.2       2 UNK        -0.5286 
     32 CA         24.6864   -2.8856   -2.0861 C.3       2 UNK         0.0209 
     33 CB         24.1055   -3.7252   -3.2367 C.3       2 UNK        -0.1931 
     34 N          25.9657   -3.4681   -1.6844 N.am      2 UNK        -0.4546 
     35 C          26.5234   -3.3298   -0.4742 C.2       1 UNK         0.5154 
     36 O          25.9719   -2.7538    0.4654 O.2       1 UNK        -0.5181 
     37 C          28.2790    0.6649   -6.5336 C.2       5 UNK         0.5014 
     38 O          29.3822    0.7531   -7.0766 O.2       5 UNK        -0.5248 
     39 N          27.6044    1.7307   -6.0790 N.am      6 UNK        -0.4434 
     40 CA         28.0349    3.1137   -6.2940 C.3       6 UNK         0.0363 
     41 CB         27.2638    4.0401   -5.3411 C.3       6 UNK        -0.1936 
     42 C          27.8583    3.5755   -7.7526 C.2       6 UNK         0.5081 
     43 O          28.5462    4.5081   -8.1671 O.2       6 UNK        -0.5248 
     44 N          26.9514    2.9279   -8.4975 N.am      7 UNK        -0.4718 
     45 CA         26.6484    3.2339   -9.8946 C.3       7 UNK         0.0273 
     46 CB         25.1257    3.3729  -10.0618 C.3       7 UNK        -0.1935 
     47 C          27.1958    2.1549  -10.8379 C.2       7 UNK         0.5018 
     48 O          27.8153    2.4985  -11.8448 O.2       7 UNK        -0.5186 
     49 N          26.9416    0.8785  -10.5149 N.am      8 UNK        -0.4240 
     50 CA         27.2823   -0.2699  -11.3554 C.3       8 UNK         0.0235 
     51 CB         26.4525   -1.4920  -10.9236 C.3       8 UNK        -0.2000 
     52 C          28.7838   -0.5856  -11.3404 C.2       8 UNK         0.4941 
     53 O          29.4049   -0.6329  -12.4029 O.2       8 UNK        -0.5273 
     54 N          29.3329   -0.8064  -10.1389 N.am      9 UNK        -0.4262 
     55 CA         30.7454   -1.1403   -9.9362 C.3       9 UNK         0.0264 
     56 CB         30.8849   -2.0166   -8.6811 C.3       9 UNK        -0.1955 
     57 C          31.6367    0.1087   -9.8336 C.2       9 UNK         0.5031 
     58 O          32.8161    0.0316  -10.1788 O.2       9 UNK        -0.5390 
     59 N          31.0556    1.2210   -9.3591 N.am      10 UNK        -0.4204 
     60 CA         31.6904    2.5048   -9.0417 C.3       10 UNK         0.0237 
     61 CB         32.2996    3.1641  -10.2978 C.3       10 UNK        -0.1985 
     62 C          32.6750    2.4002   -7.8595 C.2       10 UNK         0.4970 
     63 O          33.6998    3.0850   -7.8498 O.2       10 UNK        -0.4914 
     64 N          32.3327    1.5589   -6.8768 N.am      11 UNK        -0.4285 
     65 CA         33.1087    1.3250   -5.6479 C.3       11 UNK         0.1007 
     66 C          32.2478    0.9684   -4.4054 C.2       11 UNK         0.5703 
     67 N          30.9284    0.8668   -4.5097 N.am      11 UNK        -0.7361 
     68 O          32.7817    0.8378   -3.3068 O.2       11 UNK        -0.4986 
     69 C69        34.3347    0.3857   -5.8533 C.3       12 UNK        -0.0947 
     70 S70        33.9921   -1.1558   -6.7729 S.3       12 UNK        -0.2240 
     71 C71        34.2421   -2.4621   -5.5270 C.3       12 UNK         0.0194 
     72 H72        29.0111   -6.7167   -2.9516 H         1 UNK         0.0906 
     73 H73        28.5314   -8.0680   -1.9233 H         1 UNK         0.0906 
     74 H74        27.3820   -7.3835   -3.0760 H         1 UNK         0.0906 
     75 H75        29.0584   -4.7938   -1.8353 H         1 UNK         0.3140 
     76 H76        27.9371   -4.3883    0.7160 H         1 UNK         0.1085 
     77 H77        28.8831   -2.1494   -1.1410 H         1 UNK         0.0836 
     78 H78        28.8006   -2.1201    0.5924 H         1 UNK         0.0836 
     79 H79        31.1412   -1.2205   -1.1655 H         1 UNK         0.0731 
     80 H80        32.6094   -2.0852   -0.8055 H         1 UNK         0.0731 
     81 H81        33.7192   -1.9482   -2.8957 H         1 UNK         0.1312 
     82 H82        31.9505   -3.5911   -6.4315 H         1 UNK         0.1406 
     83 H83        29.6740   -3.3588   -2.8268 H         1 UNK         0.1631 
     84 H84        29.3485   -5.1701   -5.1816 H         1 UNK         0.0717 
     85 H85        29.6282   -4.0744   -6.5135 H         1 UNK         0.0717 
     86 H86        28.2391   -0.9928   -4.2699 H         1 UNK         0.0934 
     87 H87        29.4701   -1.4274   -5.4130 H         1 UNK         0.0934 
     88 H88        27.8282   -1.2730   -7.2902 H         1 UNK         0.0739 
     89 H89        25.8827   -1.0100   -5.2391 H         1 UNK         0.3093 
     90 H90        23.3797    0.6593   -7.1128 H         1 UNK         0.0818 
     91 H91        22.0453   -1.4307   -6.9766 H         1 UNK         0.0819 
     92 H92        23.2507   -1.5713   -8.2440 H         1 UNK         0.0819 
     93 H93        23.5074   -2.3809   -6.7046 H         1 UNK         0.0819 
     94 H94        23.1161   -0.8608   -4.7506 H         1 UNK         0.3041 
     95 H95        24.5890    1.3046   -2.3993 H         1 UNK         0.0784 
     96 H96        22.4132    2.4626   -2.8274 H         1 UNK         0.0793 
     97 H97        21.5982    0.9111   -2.9655 H         1 UNK         0.0793 
     98 H98        22.3076    1.4083   -1.4285 H         1 UNK         0.0793 
     99 H99        22.9610   -0.9800   -2.0269 H         1 UNK         0.3024 
    100 H100       23.9959   -2.9102   -1.2397 H         1 UNK         0.1171 
    101 H101       23.1273   -3.3526   -3.5428 H         1 UNK         0.0786 
    102 H102       23.9741   -4.7657   -2.9388 H         1 UNK         0.0786 
    103 H103       24.7516   -3.7089   -4.1159 H         1 UNK         0.0786 
    104 H104       26.5125   -3.9056   -2.4117 H         1 UNK         0.2977 
    105 H105       26.7050    1.5990   -5.6298 H         1 UNK         0.3127 
    106 H106       29.0975    3.1865   -6.0518 H         1 UNK         0.0770 
    107 H107       26.1932    4.0320   -5.5490 H         1 UNK         0.0814 
    108 H108       27.6062    5.0712   -5.4383 H         1 UNK         0.0814 
    109 H109       27.4060    3.7479   -4.3006 H         1 UNK         0.0814 
    110 H110       26.4536    2.1454   -8.0890 H         1 UNK         0.2983 
    111 H111       27.1032    4.1839  -10.1844 H         1 UNK         0.0947 
    112 H112       24.8643    3.5888  -11.0986 H         1 UNK         0.0806 
    113 H113       24.7359    4.1893   -9.4536 H         1 UNK         0.0806 
    114 H114       24.5985    2.4623   -9.7740 H         1 UNK         0.0806 
    115 H115       26.4151    0.6779   -9.6649 H         1 UNK         0.3000 
    116 H116       27.0066   -0.0294  -12.3848 H         1 UNK         0.0850 
    117 H117       26.6818   -2.3590  -11.5445 H         1 UNK         0.0810 
    118 H118       25.3844   -1.2972  -11.0221 H         1 UNK         0.0810 
    119 H119       26.6421   -1.7728   -9.8870 H         1 UNK         0.0810 
    120 H120       28.7496   -0.7417   -9.3188 H         1 UNK         0.3040 
    121 H121       31.0975   -1.7267  -10.7881 H         1 UNK         0.0766 
    122 H122       31.9110   -2.3700   -8.5780 H         1 UNK         0.0812 
    123 H123       30.2462   -2.8979   -8.7372 H         1 UNK         0.0812 
    124 H124       30.6356   -1.4755   -7.7685 H         1 UNK         0.0812 
    125 H125       30.1044    1.1269   -9.0252 H         1 UNK         0.3205 
    126 H126       30.8862    3.1550   -8.6962 H         1 UNK         0.0754 
    127 H127       32.6254    4.1827  -10.0838 H         1 UNK         0.0769 
    128 H128       31.5712    3.2212  -11.1068 H         1 UNK         0.0769 
    129 H129       33.1684    2.6171  -10.6647 H         1 UNK         0.0769 
    130 H130       31.4703    1.0370   -6.9655 H         1 UNK         0.2981 
    131 H131       33.5202    2.2962   -5.3663 H         1 UNK         0.0541 
    132 H132       30.4533    0.9924   -5.3914 H         1 UNK         0.3459 
    133 H133       30.4033    0.6645   -3.6754 H         1 UNK         0.3459 
    134 H134       34.8163    0.1529   -4.9023 H         1 UNK         0.0612 
    135 H135       35.0907    0.9228   -6.4275 H         1 UNK         0.0612 
    136 H136       34.5478   -3.3744   -6.0406 H         1 UNK         0.0624 
    137 H137       35.0672   -2.1961   -4.8650 H         1 UNK         0.0624 
@<TRIPOS>BOND
     1    1    2 1    
     2    1   72 1    
     3    1   73 1    
     4    1   74 1    
     5    2    3 2    
     6    2    4 am   BACKBONE|DICT|INTERRES
     7    4    5 1    
     8    4   75 1    
     9    5    6 1    
    10    5   35 1    
    11    5   76 1    
    12    6    7 1    
    13    6   77 1    
    14    6   78 1    
    15    7    8 1    
    16    8    9 1    
    17    8   79 1    
    18    8   80 1    
    19    9   10 ar   
    20    9   14 ar   
    21   10   11 ar   
    22   10   81 1    
    23   11   12 ar   
    24   11   71 1    
    25   12   13 ar   
    26   12   82 1    
    27   13   14 ar   
    28   13   15 1    
    29   14   83 1    
    30   15   16 1    
    31   15   84 1    
    32   15   85 1    
    33   16   17 1    
    34   17   18 1    
    35   17   86 1    
    36   17   87 1    
    37   18   19 1    
    38   18   37 1    
    39   18   88 1    
    40   19   20 am   BACKBONE|DICT|INTERRES
    41   19   89 1    
    42   20   21 2    
    43   20   22 1    
    44   22   23 1    
    45   22   24 1    
    46   22   90 1    
    47   23   91 1    
    48   23   92 1    
    49   23   93 1    
    50   24   25 am   BACKBONE|DICT|INTERRES
    51   24   94 1    
    52   25   26 2    
    53   25   27 1    
    54   27   28 1    
    55   27   29 1    
    56   27   95 1    
    57   28   96 1    
    58   28   97 1    
    59   28   98 1    
    60   29   30 am   BACKBONE|DICT|INTERRES
    61   29   99 1    
    62   30   31 2    
    63   30   32 1    
    64   32   33 1    
    65   32   34 1    
    66   32  100 1    
    67   33  101 1    
    68   33  102 1    
    69   33  103 1    
    70   34   35 am   BACKBONE|DICT|INTERRES
    71   34  104 1    
    72   35   36 2    
    73   37   38 2    
    74   37   39 am   BACKBONE|DICT|INTERRES
    75   39   40 1    
    76   39  105 1    
    77   40   41 1    
    78   40   42 1    
    79   40  106 1    
    80   41  107 1    
    81   41  108 1    
    82   41  109 1    
    83   42   43 2    
    84   42   44 am   BACKBONE|DICT|INTERRES
    85   44   45 1    
    86   44  110 1    
    87   45   46 1    
    88   45   47 1    
    89   45  111 1    
    90   46  112 1    
    91   46  113 1    
    92   46  114 1    
    93   47   48 2    
    94   47   49 am   BACKBONE|DICT|INTERRES
    95   49   50 1    
    96   49  115 1    
    97   50   51 1    
    98   50   52 1    
    99   50  116 1    
   100   51  117 1    
   101   51  118 1    
   102   51  119 1    
   103   52   53 2    
   104   52   54 am   BACKBONE|DICT|INTERRES
   105   54   55 1    
   106   54  120 1    
   107   55   56 1    
   108   55   57 1    
   109   55  121 1    
   110   56  122 1    
   111   56  123 1    
   112   56  124 1    
   113   57   58 2    
   114   57   59 am   BACKBONE|DICT|INTERRES
   115   59   60 1    
   116   59  125 1    
   117   60   61 1    
   118   60   62 1    
   119   60  126 1    
   120   61  127 1    
   121   61  128 1    
   122   61  129 1    
   123   62   63 2    
   124   62   64 am   BACKBONE|DICT|INTERRES
   125   64   65 1    
   126   64  130 1    
   127   65   66 1    
   128   65   69 1    
   129   65  131 1    
   130   66   67 am   BACKBONE|DICT|INTERRES
   131   66   68 2    
   132   67  132 1    
   133   67  133 1    
   134   69   70 1    
   135   69  134 1    
   136   69  135 1    
   137   70   71 1    
   138   71  136 1    
   139   71  137 1    
@<TRIPOS>SUBSTRUCTURE
     1 UNK         1 GROUP             0       ****    0 ROOT    
