@<TRIPOS>MOLECULE
3R137
137   139    1
SMALL
USER_CHARGES


@<TRIPOS>ATOM
      1 CA         28.7454   -6.7178   -1.8670 C.3       0 UNK        -0.2020 
      2 C          28.4621   -5.8935   -0.6196 C.2       0 UNK         0.4855 
      3 O          29.0296   -6.1666    0.4380 O.2       0 UNK        -0.5197 
      4 N          27.5911   -4.8868   -0.7393 N.am      1 UNK        -0.4892 
      5 CA         27.1698   -3.9983    0.3471 C.3       1 UNK         0.0835 
      6 C6         28.2633   -3.0072    0.8421 C.3       12 UNK        -0.0855 
      7 S7         28.9280   -1.8782   -0.4358 S.3       12 UNK        -0.2931 
      8 C8         30.5079   -2.6831   -0.8636 C.3       12 UNK         0.0378 
      9 C9         30.7285   -2.7094   -2.3688 C.ar      12 UNK        -0.0802 
     10 C10        31.8532   -2.1120   -2.9426 C.ar      12 UNK        -0.0944 
     11 C11        32.0560   -2.1576   -4.3274 C.ar      12 UNK        -0.0787 
     12 C12        31.1142   -2.8060   -5.1374 C.ar      12 UNK        -0.0862 
     13 C13        29.9870   -3.4174   -4.5740 C.ar      12 UNK        -0.0733 
     14 C14        29.8134   -3.3683   -3.1901 C.ar      12 UNK        -0.0832 
     15 C15        28.9890   -4.1676   -5.4540 C.3       12 UNK         0.0240 
     16 S16        27.2417   -3.9049   -4.9645 S.3       12 UNK        -0.2522 
     17 C17        26.4267   -3.8224   -6.5981 C.3       12 UNK        -0.0967 
     18 CA         26.2434   -2.4026   -7.2043 C.3       5 UNK         0.0660 
     19 N          25.0775   -1.6780   -6.6905 N.am      5 UNK        -0.4015 
     20 C          24.5106   -0.6526   -7.3485 C.2       4 UNK         0.4946 
     21 O          24.9032   -0.2390   -8.4409 O.2       4 UNK        -0.5353 
     22 CA         23.3281    0.0532   -6.6675 C.3       4 UNK         0.0277 
     23 CB         22.0493   -0.7937   -6.7738 C.3       4 UNK        -0.1981 
     24 N          23.5897    0.3829   -5.2665 N.am      4 UNK        -0.4209 
     25 C          24.5456    1.2234   -4.8433 C.2       3 UNK         0.4942 
     26 O          25.3081    1.8309   -5.5920 O.2       3 UNK        -0.5208 
     27 CA         24.6979    1.3919   -3.3228 C.3       3 UNK         0.0250 
     28 CB         23.8086    2.5383   -2.8157 C.3       3 UNK        -0.1990 
     29 N          24.4006    0.1685   -2.5722 N.am      3 UNK        -0.4232 
     30 C          25.0916   -0.9734   -2.6853 C.2       2 UNK         0.4993 
     31 O          26.0486   -1.1286   -3.4486 O.2       2 UNK        -0.5286 
     32 CA         24.5973   -2.1534   -1.8471 C.3       2 UNK         0.0209 
     33 CB         23.7788   -3.1274   -2.7126 C.3       2 UNK        -0.1931 
     34 N          25.7576   -2.8459   -1.2988 N.am      2 UNK        -0.4546 
     35 C          25.8571   -3.2972   -0.0407 C.2       1 UNK         0.5154 
     36 O          24.9501   -3.2140    0.7892 O.2       1 UNK        -0.5181 
     37 C          27.5100   -1.5282   -7.1482 C.2       5 UNK         0.5014 
     38 O          28.2967   -1.5614   -8.0931 O.2       5 UNK        -0.5248 
     39 N          27.6684   -0.7436   -6.0703 N.am      6 UNK        -0.4434 
     40 CA         28.7728    0.1988   -5.8948 C.3       6 UNK         0.0363 
     41 CB         28.7189    0.8066   -4.4859 C.3       6 UNK        -0.1936 
     42 C          28.7920    1.2893   -6.9783 C.2       6 UNK         0.5081 
     43 O          29.8574    1.5769   -7.5229 O.2       6 UNK        -0.5248 
     44 N          27.6149    1.8364   -7.3138 N.am      7 UNK        -0.4718 
     45 CA         27.4242    2.7773   -8.4188 C.3       7 UNK         0.0273 
     46 CB         26.0004    3.3540   -8.3775 C.3       7 UNK        -0.1935 
     47 C          27.7178    2.1471   -9.7892 C.2       7 UNK         0.5018 
     48 O          28.4229    2.7629  -10.5884 O.2       7 UNK        -0.5186 
     49 N          27.2089    0.9278  -10.0261 N.am      8 UNK        -0.4240 
     50 CA         27.4369    0.1602  -11.2564 C.3       8 UNK         0.0235 
     51 CB         26.5490   -1.0940  -11.2615 C.3       8 UNK        -0.2000 
     52 C          28.9133   -0.2176  -11.4723 C.2       8 UNK         0.4941 
     53 O          29.4032   -0.1241  -12.5982 O.2       8 UNK        -0.5273 
     54 N          29.6002   -0.6085  -10.3905 N.am      9 UNK        -0.4262 
     55 CA         31.0332   -0.9125  -10.3678 C.3       9 UNK         0.0264 
     56 CB         31.3526   -1.7010   -9.0854 C.3       9 UNK        -0.1955 
     57 C          31.9339    0.3339  -10.4514 C.2       9 UNK         0.5031 
     58 O          33.1270    0.1806  -10.7172 O.2       9 UNK        -0.5390 
     59 N          31.3676    1.5233  -10.1908 N.am      10 UNK        -0.4204 
     60 CA         32.0424    2.8154  -10.0152 C.3       10 UNK         0.0237 
     61 CB         32.6731    3.3018  -11.3375 C.3       10 UNK        -0.1985 
     62 C          33.0351    2.7794   -8.8359 C.2       10 UNK         0.4970 
     63 O          34.1774    3.2239   -8.9672 O.2       10 UNK        -0.4914 
     64 N          32.5759    2.2101   -7.7149 N.am      11 UNK        -0.4285 
     65 CA         33.3318    2.0212   -6.4734 C.3       11 UNK         0.1007 
     66 C          33.7241    3.3647   -5.7969 C.2       11 UNK         0.5703 
     67 N          34.9021    3.4373   -5.1921 N.am      11 UNK        -0.7361 
     68 O          32.9576    4.3268   -5.7869 O.2       11 UNK        -0.4986 
     69 C69        32.5512    1.0915   -5.5055 C.3       12 UNK        -0.0947 
     70 S70        33.6583    0.1429   -4.4145 S.3       12 UNK        -0.2240 
     71 C71        33.3272   -1.5732   -4.9382 C.3       12 UNK         0.0194 
     72 H72        28.5366   -7.7703   -1.6774 H         1 UNK         0.0906 
     73 H73        28.1392   -6.4001   -2.7154 H         1 UNK         0.0906 
     74 H74        29.7943   -6.6231   -2.1470 H         1 UNK         0.0906 
     75 H75        27.0918   -4.7606   -1.6091 H         1 UNK         0.3140 
     76 H76        26.9162   -4.6415    1.1934 H         1 UNK         0.1085 
     77 H77        27.8620   -2.3926    1.6501 H         1 UNK         0.0836 
     78 H78        29.0845   -3.5612    1.2984 H         1 UNK         0.0836 
     79 H79        31.3187   -2.1579   -0.3566 H         1 UNK         0.0731 
     80 H80        30.5296   -3.7096   -0.4970 H         1 UNK         0.0731 
     81 H81        32.5815   -1.6220   -2.3110 H         1 UNK         0.1312 
     82 H82        31.2708   -2.8564   -6.2062 H         1 UNK         0.1406 
     83 H83        28.9527   -3.8392   -2.7453 H         1 UNK         0.1631 
     84 H84        29.1306   -3.8722   -6.4942 H         1 UNK         0.0717 
     85 H85        29.2090   -5.2347   -5.4069 H         1 UNK         0.0717 
     86 H86        26.9932   -4.4420   -7.2956 H         1 UNK         0.0934 
     87 H87        25.4565   -4.3148   -6.5159 H         1 UNK         0.0934 
     88 H88        26.0453   -2.5685   -8.2657 H         1 UNK         0.0739 
     89 H89        24.7453   -1.9320   -5.7720 H         1 UNK         0.3093 
     90 H90        23.1581    0.9919   -7.1996 H         1 UNK         0.0818 
     91 H91        21.1842   -0.2552   -6.3862 H         1 UNK         0.0819 
     92 H92        21.8329   -1.0425   -7.8138 H         1 UNK         0.0819 
     93 H93        22.1338   -1.7325   -6.2250 H         1 UNK         0.0819 
     94 H94        23.0064   -0.0623   -4.5737 H         1 UNK         0.3041 
     95 H95        25.7383    1.6560   -3.1241 H         1 UNK         0.0784 
     96 H96        24.0284    3.4654   -3.3475 H         1 UNK         0.0793 
     97 H97        22.7487    2.3243   -2.9589 H         1 UNK         0.0793 
     98 H98        23.9735    2.7297   -1.7551 H         1 UNK         0.0793 
     99 H99        23.6238    0.2122   -1.9278 H         1 UNK         0.3024 
    100 H100       23.9670   -1.7728   -1.0399 H         1 UNK         0.1171 
    101 H101       23.4147   -3.9683   -2.1221 H         1 UNK         0.0786 
    102 H102       22.9074   -2.6336   -3.1441 H         1 UNK         0.0786 
    103 H103       24.3702   -3.5303   -3.5360 H         1 UNK         0.0786 
    104 H104       26.5800   -2.8164   -1.8888 H         1 UNK         0.2977 
    105 H105       27.0091   -0.8242   -5.3022 H         1 UNK         0.3127 
    106 H106       29.6993   -0.3706   -5.9822 H         1 UNK         0.0770 
    107 H107       27.7930    1.3564   -4.3209 H         1 UNK         0.0814 
    108 H108       29.5430    1.5013   -4.3253 H         1 UNK         0.0814 
    109 H109       28.7915    0.0326   -3.7205 H         1 UNK         0.0814 
    110 H110       26.7865    1.5941   -6.7747 H         1 UNK         0.2983 
    111 H111       28.1281    3.6005   -8.2776 H         1 UNK         0.0947 
    112 H112       25.8380    4.0568   -9.1958 H         1 UNK         0.0806 
    113 H113       25.8198    3.8926   -7.4470 H         1 UNK         0.0806 
    114 H114       25.2446    2.5720   -8.4609 H         1 UNK         0.0806 
    115 H115       26.6070    0.5042   -9.3259 H         1 UNK         0.3000 
    116 H116       27.1347    0.7914  -12.0949 H         1 UNK         0.0850 
    117 H117       26.6690   -1.6532  -12.1903 H         1 UNK         0.0810 
    118 H118       25.4940   -0.8342  -11.1728 H         1 UNK         0.0810 
    119 H119       26.7979   -1.7673  -10.4413 H         1 UNK         0.0810 
    120 H120       29.0963   -0.7440   -9.5141 H         1 UNK         0.3040 
    121 H121       31.2642   -1.5441  -11.2281 H         1 UNK         0.0766 
    122 H122       30.7737   -2.6232   -9.0317 H         1 UNK         0.0812 
    123 H123       31.1329   -1.1157   -8.1913 H         1 UNK         0.0812 
    124 H124       32.4072   -1.9770   -9.0446 H         1 UNK         0.0812 
    125 H125       30.3796    1.5242   -9.9698 H         1 UNK         0.3205 
    126 H126       31.2644    3.5286   -9.7385 H         1 UNK         0.0754 
    127 H127       33.0686    4.3126  -11.2311 H         1 UNK         0.0769 
    128 H128       31.9366    3.3247  -12.1408 H         1 UNK         0.0769 
    129 H129       33.4973    2.6629  -11.6558 H         1 UNK         0.0769 
    130 H130       31.5973    1.9268   -7.6838 H         1 UNK         0.2981 
    131 H131       34.2526    1.5145   -6.7699 H         1 UNK         0.0541 
    132 H132       35.1688    4.2960   -4.7369 H         1 UNK         0.3459 
    133 H133       35.5224    2.6429   -5.1700 H         1 UNK         0.3459 
    134 H134       31.8427    1.6538   -4.8957 H         1 UNK         0.0612 
    135 H135       31.9508    0.3779   -6.0705 H         1 UNK         0.0612 
    136 H136       34.1692   -2.1933   -4.6285 H         1 UNK         0.0624 
    137 H137       33.3001   -1.6186   -6.0282 H         1 UNK         0.0624 
@<TRIPOS>BOND
     1    1    2 1    
     2    1   72 1    
     3    1   73 1    
     4    1   74 1    
     5    2    3 2    
     6    2    4 am   BACKBONE|DICT|INTERRES
     7    4    5 1    
     8    4   75 1    
     9    5    6 1    
    10    5   35 1    
    11    5   76 1    
    12    6    7 1    
    13    6   77 1    
    14    6   78 1    
    15    7    8 1    
    16    8    9 1    
    17    8   79 1    
    18    8   80 1    
    19    9   10 ar   
    20    9   14 ar   
    21   10   11 ar   
    22   10   81 1    
    23   11   12 ar   
    24   11   71 1    
    25   12   13 ar   
    26   12   82 1    
    27   13   14 ar   
    28   13   15 1    
    29   14   83 1    
    30   15   16 1    
    31   15   84 1    
    32   15   85 1    
    33   16   17 1    
    34   17   18 1    
    35   17   86 1    
    36   17   87 1    
    37   18   19 1    
    38   18   37 1    
    39   18   88 1    
    40   19   20 am   BACKBONE|DICT|INTERRES
    41   19   89 1    
    42   20   21 2    
    43   20   22 1    
    44   22   23 1    
    45   22   24 1    
    46   22   90 1    
    47   23   91 1    
    48   23   92 1    
    49   23   93 1    
    50   24   25 am   BACKBONE|DICT|INTERRES
    51   24   94 1    
    52   25   26 2    
    53   25   27 1    
    54   27   28 1    
    55   27   29 1    
    56   27   95 1    
    57   28   96 1    
    58   28   97 1    
    59   28   98 1    
    60   29   30 am   BACKBONE|DICT|INTERRES
    61   29   99 1    
    62   30   31 2    
    63   30   32 1    
    64   32   33 1    
    65   32   34 1    
    66   32  100 1    
    67   33  101 1    
    68   33  102 1    
    69   33  103 1    
    70   34   35 am   BACKBONE|DICT|INTERRES
    71   34  104 1    
    72   35   36 2    
    73   37   38 2    
    74   37   39 am   BACKBONE|DICT|INTERRES
    75   39   40 1    
    76   39  105 1    
    77   40   41 1    
    78   40   42 1    
    79   40  106 1    
    80   41  107 1    
    81   41  108 1    
    82   41  109 1    
    83   42   43 2    
    84   42   44 am   BACKBONE|DICT|INTERRES
    85   44   45 1    
    86   44  110 1    
    87   45   46 1    
    88   45   47 1    
    89   45  111 1    
    90   46  112 1    
    91   46  113 1    
    92   46  114 1    
    93   47   48 2    
    94   47   49 am   BACKBONE|DICT|INTERRES
    95   49   50 1    
    96   49  115 1    
    97   50   51 1    
    98   50   52 1    
    99   50  116 1    
   100   51  117 1    
   101   51  118 1    
   102   51  119 1    
   103   52   53 2    
   104   52   54 am   BACKBONE|DICT|INTERRES
   105   54   55 1    
   106   54  120 1    
   107   55   56 1    
   108   55   57 1    
   109   55  121 1    
   110   56  122 1    
   111   56  123 1    
   112   56  124 1    
   113   57   58 2    
   114   57   59 am   BACKBONE|DICT|INTERRES
   115   59   60 1    
   116   59  125 1    
   117   60   61 1    
   118   60   62 1    
   119   60  126 1    
   120   61  127 1    
   121   61  128 1    
   122   61  129 1    
   123   62   63 2    
   124   62   64 am   BACKBONE|DICT|INTERRES
   125   64   65 1    
   126   64  130 1    
   127   65   66 1    
   128   65   69 1    
   129   65  131 1    
   130   66   67 am   BACKBONE|DICT|INTERRES
   131   66   68 2    
   132   67  132 1    
   133   67  133 1    
   134   69   70 1    
   135   69  134 1    
   136   69  135 1    
   137   70   71 1    
   138   71  136 1    
   139   71  137 1    
@<TRIPOS>SUBSTRUCTURE
     1 UNK         1 GROUP             0       ****    0 ROOT    
