@<TRIPOS>MOLECULE
3R137
137   139    1
SMALL
USER_CHARGES


@<TRIPOS>ATOM
      1 CA         24.9283   -3.2052    1.2836 C.3       0 UNK        -0.2020 
      2 C          25.9826   -2.4164    0.5220 C.2       0 UNK         0.4855 
      3 O          26.4639   -1.3964    1.0181 O.2       0 UNK        -0.5197 
      4 N          26.3464   -2.8753   -0.6821 N.am      1 UNK        -0.4892 
      5 CA         27.3332   -2.2480   -1.5690 C.3       1 UNK         0.0835 
      6 C6         27.9550   -3.2741   -2.5492 C.3       12 UNK        -0.0855 
      7 S7         29.0251   -4.4650   -1.6759 S.3       12 UNK        -0.2931 
      8 C8         30.6934   -3.8336   -2.0973 C.3       12 UNK         0.0378 
      9 C9         31.1304   -4.0187   -3.5546 C.ar      12 UNK        -0.0802 
     10 C10        32.2504   -3.3181   -4.0197 C.ar      12 UNK        -0.0944 
     11 C11        32.7109   -3.4898   -5.3302 C.ar      12 UNK        -0.0787 
     12 C12        32.0187   -4.3423   -6.1958 C.ar      12 UNK        -0.0862 
     13 C13        30.9004   -5.0503   -5.7483 C.ar      12 UNK        -0.0733 
     14 C14        30.4765   -4.8985   -4.4262 C.ar      12 UNK        -0.0832 
     15 C15        30.1738   -6.0174   -6.6735 C.3       12 UNK         0.0240 
     16 S16        29.0060   -5.1793   -7.7918 S.3       12 UNK        -0.2522 
     17 C17        27.7429   -4.5263   -6.6417 C.3       12 UNK        -0.0967 
     18 CA         27.2320   -3.1230   -7.0476 C.3       5 UNK         0.0660 
     19 N          25.9698   -2.7938   -6.3801 N.am      5 UNK        -0.4015 
     20 C          25.2341   -1.6993   -6.6126 C.2       4 UNK         0.4946 
     21 O          25.5923   -0.7868   -7.3610 O.2       4 UNK        -0.5353 
     22 CA         23.8831   -1.5841   -5.8933 C.3       4 UNK         0.0277 
     23 CB         23.6053   -2.6890   -4.8505 C.3       4 UNK        -0.1981 
     24 N          23.8386   -0.2798   -5.2482 N.am      4 UNK        -0.4209 
     25 C          22.7656    0.5102   -5.1273 C.2       3 UNK         0.4942 
     26 O          21.6511    0.2184   -5.5652 O.2       3 UNK        -0.5208 
     27 CA         22.9754    1.8639   -4.4110 C.3       3 UNK         0.0250 
     28 CB         21.7368    2.3027   -3.6003 C.3       3 UNK        -0.1990 
     29 N          24.1948    1.9170   -3.5878 N.am      3 UNK        -0.4232 
     30 C          24.4831    1.1568   -2.5204 C.2       2 UNK         0.4993 
     31 O          23.7010    0.3607   -1.9957 O.2       2 UNK        -0.5286 
     32 CA         25.9035    1.3095   -1.9566 C.3       2 UNK         0.0209 
     33 CB         25.9149    2.2986   -0.7801 C.3       2 UNK        -0.1931 
     34 N          26.4548    0.0294   -1.5117 N.am      2 UNK        -0.4546 
     35 C          26.7255   -1.0265   -2.2903 C.2       1 UNK         0.5154 
     36 O          26.5423   -1.0494   -3.5122 O.2       1 UNK        -0.5181 
     37 C          28.3175   -2.0317   -6.9134 C.2       5 UNK         0.5014 
     38 O          28.9948   -1.7557   -7.9027 O.2       5 UNK        -0.5248 
     39 N          28.4345   -1.3758   -5.7466 N.am      6 UNK        -0.4434 
     40 CA         29.4246   -0.3098   -5.5475 C.3       6 UNK         0.0363 
     41 CB         29.6702   -0.0463   -4.0541 C.3       6 UNK        -0.1936 
     42 C          29.0590    0.9983   -6.2644 C.2       6 UNK         0.5081 
     43 O          29.9582    1.7947   -6.5296 O.2       6 UNK        -0.5248 
     44 N          27.7737    1.1997   -6.5840 N.am      7 UNK        -0.4718 
     45 CA         27.3211    2.2999   -7.4345 C.3       7 UNK         0.0273 
     46 CB         25.8502    2.6331   -7.1336 C.3       7 UNK        -0.1935 
     47 C          27.5256    1.9526   -8.9164 C.2       7 UNK         0.5018 
     48 O          28.0311    2.7872   -9.6661 O.2       7 UNK        -0.5186 
     49 N          27.1611    0.7199   -9.3005 N.am      8 UNK        -0.4240 
     50 CA         27.2813    0.1926  -10.6625 C.3       8 UNK         0.0235 
     51 CB         26.5684   -1.1663  -10.7526 C.3       8 UNK        -0.2000 
     52 C          28.7361    0.0784  -11.1500 C.2       8 UNK         0.4941 
     53 O          29.0350    0.5158  -12.2617 O.2       8 UNK        -0.5273 
     54 N          29.6143   -0.4907  -10.3130 N.am      9 UNK        -0.4262 
     55 CA         31.0436   -0.6586  -10.5951 C.3       9 UNK         0.0264 
     56 CB         31.5617   -1.8905   -9.8329 C.3       9 UNK        -0.1955 
     57 C          31.8837    0.5860  -10.2508 C.2       9 UNK         0.5031 
     58 O          33.0739    0.6009  -10.5684 O.2       9 UNK        -0.5390 
     59 N          31.2668    1.5923   -9.6107 N.am      10 UNK        -0.4204 
     60 CA         31.8648    2.8440   -9.1277 C.3       10 UNK         0.0237 
     61 CB         32.3295    3.7269  -10.3058 C.3       10 UNK        -0.1985 
     62 C          32.9610    2.6196   -8.0650 C.2       10 UNK         0.4970 
     63 O          33.9763    3.3190   -8.0637 O.2       10 UNK        -0.4914 
     64 N          32.7218    1.6539   -7.1705 N.am      11 UNK        -0.4285 
     65 CA         33.5447    1.3792   -5.9840 C.3       11 UNK         0.1007 
     66 C          33.2778    2.3795   -4.8248 C.2       11 UNK         0.5703 
     67 N          32.1151    3.0210   -4.7658 N.am      11 UNK        -0.7361 
     68 O          34.1401    2.5784   -3.9727 O.2       11 UNK        -0.4986 
     69 C69        33.3879   -0.0807   -5.4804 C.3       12 UNK        -0.0947 
     70 S70        33.6865   -1.3199   -6.7820 S.3       12 UNK        -0.2240 
     71 C71        33.9953   -2.8159   -5.7967 C.3       12 UNK         0.0194 
     72 H72        25.3253   -3.5309    2.2446 H         1 UNK         0.0906 
     73 H73        24.0551   -2.5803    1.4693 H         1 UNK         0.0906 
     74 H74        24.6029   -4.0885    0.7343 H         1 UNK         0.0906 
     75 H75        25.9136   -3.7145   -1.0410 H         1 UNK         0.3140 
     76 H76        28.1483   -1.8567   -0.9551 H         1 UNK         0.1085 
     77 H77        28.5502   -2.7798   -3.3160 H         1 UNK         0.0836 
     78 H78        27.1762   -3.8212   -3.0832 H         1 UNK         0.0836 
     79 H79        30.7415   -2.7763   -1.8319 H         1 UNK         0.0731 
     80 H80        31.4176   -4.3424   -1.4599 H         1 UNK         0.0731 
     81 H81        32.7851   -2.6585   -3.3498 H         1 UNK         0.1312 
     82 H82        32.3653   -4.4736   -7.2120 H         1 UNK         0.1406 
     83 H83        29.6328   -5.4792   -4.0831 H         1 UNK         0.1631 
     84 H84        29.6380   -6.7741   -6.0981 H         1 UNK         0.0717 
     85 H85        30.9047   -6.5591   -7.2756 H         1 UNK         0.0717 
     86 H86        26.9172   -5.2398   -6.6481 H         1 UNK         0.0934 
     87 H87        28.1114   -4.5119   -5.6175 H         1 UNK         0.0934 
     88 H88        26.9832   -3.1719   -8.1094 H         1 UNK         0.0739 
     89 H89        25.6088   -3.4782   -5.7327 H         1 UNK         0.3093 
     90 H90        23.1167   -1.6343   -6.6695 H         1 UNK         0.0818 
     91 H91        22.6323   -2.5415   -4.3813 H         1 UNK         0.0819 
     92 H92        23.5850   -3.6785   -5.3088 H         1 UNK         0.0819 
     93 H93        24.3503   -2.6953   -4.0535 H         1 UNK         0.0819 
     94 H94        24.7190    0.0372   -4.8662 H         1 UNK         0.3041 
     95 H95        23.1191    2.5967   -5.2065 H         1 UNK         0.0784 
     96 H96        20.8661    2.4180   -4.2470 H         1 UNK         0.0793 
     97 H97        21.4745    1.5738   -2.8330 H         1 UNK         0.0793 
     98 H98        21.9025    3.2619   -3.1099 H         1 UNK         0.0793 
     99 H99        24.8996    2.5650   -3.9117 H         1 UNK         0.3024 
    100 H100       26.5581    1.6917   -2.7432 H         1 UNK         0.1171 
    101 H101       25.2962    1.9464    0.0467 H         1 UNK         0.0786 
    102 H102       25.5308    3.2737   -1.0829 H         1 UNK         0.0786 
    103 H103       26.9253    2.4531   -0.4006 H         1 UNK         0.0786 
    104 H104       26.5548   -0.1034   -0.5100 H         1 UNK         0.2977 
    105 H105       27.7726   -1.5441   -4.9952 H         1 UNK         0.3127 
    106 H106       30.3643   -0.6577   -5.9806 H         1 UNK         0.0770 
    107 H107       29.9563   -0.9538   -3.5250 H         1 UNK         0.0814 
    108 H108       28.7959    0.3843   -3.5700 H         1 UNK         0.0814 
    109 H109       30.4818    0.6690   -3.9173 H         1 UNK         0.0814 
    110 H110       27.1048    0.4647   -6.3933 H         1 UNK         0.2983 
    111 H111       27.9150    3.1907   -7.2155 H         1 UNK         0.0947 
    112 H112       25.5087    3.4650   -7.7511 H         1 UNK         0.0806 
    113 H113       25.7194    2.9300   -6.0939 H         1 UNK         0.0806 
    114 H114       25.1861    1.7916   -7.3306 H         1 UNK         0.0806 
    115 H115       26.7194    0.1140   -8.6128 H         1 UNK         0.3000 
    116 H116       26.7654    0.8890  -11.3270 H         1 UNK         0.0850 
    117 H117       26.5882   -1.5498  -11.7736 H         1 UNK         0.0810 
    118 H118       25.5225   -1.0874  -10.4549 H         1 UNK         0.0810 
    119 H119       27.0422   -1.9128  -10.1153 H         1 UNK         0.0810 
    120 H120       29.2866   -0.8689   -9.4226 H         1 UNK         0.3040 
    121 H121       31.1733   -0.8486  -11.6627 H         1 UNK         0.0766 
    122 H122       32.6098   -2.0850  -10.0638 H         1 UNK         0.0812 
    123 H123       30.9987   -2.7868  -10.0936 H         1 UNK         0.0812 
    124 H124       31.4881   -1.7552   -8.7537 H         1 UNK         0.0812 
    125 H125       30.2822    1.4786   -9.4128 H         1 UNK         0.3205 
    126 H126       31.0621    3.3797   -8.6182 H         1 UNK         0.0754 
    127 H127       32.6443    4.7110   -9.9564 H         1 UNK         0.0769 
    128 H128       31.5250    3.8819  -11.0249 H         1 UNK         0.0769 
    129 H129       33.1738    3.2855  -10.8361 H         1 UNK         0.0769 
    130 H130       31.8154    1.2058   -7.1940 H         1 UNK         0.2981 
    131 H131       34.5901    1.5094   -6.2704 H         1 UNK         0.0541 
    132 H132       31.3882    2.8215   -5.4430 H         1 UNK         0.3459 
    133 H133       31.9469    3.6747   -4.0183 H         1 UNK         0.3459 
    134 H134       32.3951   -0.2501   -5.0674 H         1 UNK         0.0612 
    135 H135       34.0893   -0.2654   -4.6648 H         1 UNK         0.0612 
    136 H136       34.6375   -2.5759   -4.9482 H         1 UNK         0.0624 
    137 H137       34.5629   -3.5172   -6.4100 H         1 UNK         0.0624 
@<TRIPOS>BOND
     1    1    2 1    
     2    1   72 1    
     3    1   73 1    
     4    1   74 1    
     5    2    3 2    
     6    2    4 am   BACKBONE|DICT|INTERRES
     7    4    5 1    
     8    4   75 1    
     9    5    6 1    
    10    5   35 1    
    11    5   76 1    
    12    6    7 1    
    13    6   77 1    
    14    6   78 1    
    15    7    8 1    
    16    8    9 1    
    17    8   79 1    
    18    8   80 1    
    19    9   10 ar   
    20    9   14 ar   
    21   10   11 ar   
    22   10   81 1    
    23   11   12 ar   
    24   11   71 1    
    25   12   13 ar   
    26   12   82 1    
    27   13   14 ar   
    28   13   15 1    
    29   14   83 1    
    30   15   16 1    
    31   15   84 1    
    32   15   85 1    
    33   16   17 1    
    34   17   18 1    
    35   17   86 1    
    36   17   87 1    
    37   18   19 1    
    38   18   37 1    
    39   18   88 1    
    40   19   20 am   BACKBONE|DICT|INTERRES
    41   19   89 1    
    42   20   21 2    
    43   20   22 1    
    44   22   23 1    
    45   22   24 1    
    46   22   90 1    
    47   23   91 1    
    48   23   92 1    
    49   23   93 1    
    50   24   25 am   BACKBONE|DICT|INTERRES
    51   24   94 1    
    52   25   26 2    
    53   25   27 1    
    54   27   28 1    
    55   27   29 1    
    56   27   95 1    
    57   28   96 1    
    58   28   97 1    
    59   28   98 1    
    60   29   30 am   BACKBONE|DICT|INTERRES
    61   29   99 1    
    62   30   31 2    
    63   30   32 1    
    64   32   33 1    
    65   32   34 1    
    66   32  100 1    
    67   33  101 1    
    68   33  102 1    
    69   33  103 1    
    70   34   35 am   BACKBONE|DICT|INTERRES
    71   34  104 1    
    72   35   36 2    
    73   37   38 2    
    74   37   39 am   BACKBONE|DICT|INTERRES
    75   39   40 1    
    76   39  105 1    
    77   40   41 1    
    78   40   42 1    
    79   40  106 1    
    80   41  107 1    
    81   41  108 1    
    82   41  109 1    
    83   42   43 2    
    84   42   44 am   BACKBONE|DICT|INTERRES
    85   44   45 1    
    86   44  110 1    
    87   45   46 1    
    88   45   47 1    
    89   45  111 1    
    90   46  112 1    
    91   46  113 1    
    92   46  114 1    
    93   47   48 2    
    94   47   49 am   BACKBONE|DICT|INTERRES
    95   49   50 1    
    96   49  115 1    
    97   50   51 1    
    98   50   52 1    
    99   50  116 1    
   100   51  117 1    
   101   51  118 1    
   102   51  119 1    
   103   52   53 2    
   104   52   54 am   BACKBONE|DICT|INTERRES
   105   54   55 1    
   106   54  120 1    
   107   55   56 1    
   108   55   57 1    
   109   55  121 1    
   110   56  122 1    
   111   56  123 1    
   112   56  124 1    
   113   57   58 2    
   114   57   59 am   BACKBONE|DICT|INTERRES
   115   59   60 1    
   116   59  125 1    
   117   60   61 1    
   118   60   62 1    
   119   60  126 1    
   120   61  127 1    
   121   61  128 1    
   122   61  129 1    
   123   62   63 2    
   124   62   64 am   BACKBONE|DICT|INTERRES
   125   64   65 1    
   126   64  130 1    
   127   65   66 1    
   128   65   69 1    
   129   65  131 1    
   130   66   67 am   BACKBONE|DICT|INTERRES
   131   66   68 2    
   132   67  132 1    
   133   67  133 1    
   134   69   70 1    
   135   69  134 1    
   136   69  135 1    
   137   70   71 1    
   138   71  136 1    
   139   71  137 1    
@<TRIPOS>SUBSTRUCTURE
     1 UNK         1 GROUP             0       ****    0 ROOT    
