@<TRIPOS>MOLECULE
3R137
137   139    1
SMALL
USER_CHARGES


@<TRIPOS>ATOM
      1 CA         25.4772   -6.7602   -3.8826 C.3       0 UNK        -0.2020 
      2 C          25.5974   -5.7518   -2.7505 C.2       0 UNK         0.4855 
      3 O          24.5787   -5.2697   -2.2533 O.2       0 UNK        -0.5197 
      4 N          26.8347   -5.4225   -2.3501 N.am      1 UNK        -0.4892 
      5 CA         27.1786   -4.4242   -1.3287 C.3       1 UNK         0.0835 
      6 C6         28.7160   -4.3347   -1.1501 C.3       12 UNK        -0.0855 
      7 S7         29.2283   -3.2347    0.2160 S.3       12 UNK        -0.2931 
      8 C8         30.9752   -2.9148   -0.1964 C.3       12 UNK         0.0378 
      9 C9         31.1437   -2.0887   -1.4666 C.ar      12 UNK        -0.0802 
     10 C10        31.6361   -2.6833   -2.6330 C.ar      12 UNK        -0.0944 
     11 C11        31.8317   -1.9249   -3.7913 C.ar      12 UNK        -0.0787 
     12 C12        31.5103   -0.5655   -3.7835 C.ar      12 UNK        -0.0862 
     13 C13        31.0070    0.0421   -2.6290 C.ar      12 UNK        -0.0733 
     14 C14        30.8418   -0.7228   -1.4677 C.ar      12 UNK        -0.0832 
     15 C15        30.6802    1.5324   -2.6492 C.3       12 UNK         0.0240 
     16 S16        29.0395    1.9614   -1.9701 S.3       12 UNK        -0.2522 
     17 C17        27.9104    0.7255   -2.6991 C.3       12 UNK        -0.0967 
     18 CA         27.8742    0.6639   -4.2471 C.3       5 UNK         0.0660 
     19 N          27.3662   -0.6405   -4.6918 N.am      5 UNK        -0.4015 
     20 C          27.2536   -1.0819   -5.9529 C.2       4 UNK         0.4946 
     21 O          27.5918   -0.4289   -6.9366 O.2       4 UNK        -0.5353 
     22 CA         26.5868   -2.4520   -6.1541 C.3       4 UNK         0.0277 
     23 CB         27.5854   -3.5991   -5.9410 C.3       4 UNK        -0.1981 
     24 N          25.4525   -2.6191   -5.2455 N.am      4 UNK        -0.4209 
     25 C          24.1999   -2.2273   -5.5165 C.2       3 UNK         0.4942 
     26 O          23.8505   -1.7506   -6.5961 O.2       3 UNK        -0.5208 
     27 CA         23.1552   -2.3807   -4.3961 C.3       3 UNK         0.0250 
     28 CB         22.3874   -3.7030   -4.5520 C.3       3 UNK        -0.1990 
     29 N          23.7326   -2.3065   -3.0512 N.am      3 UNK        -0.4232 
     30 C          24.2290   -1.1850   -2.5069 C.2       2 UNK         0.4993 
     31 O          24.2298   -0.0919   -3.0738 O.2       2 UNK        -0.5286 
     32 CA         24.8855   -1.3121   -1.1190 C.3       2 UNK         0.0209 
     33 CB         23.8358   -1.1280   -0.0118 C.3       2 UNK        -0.1931 
     34 N          25.6075   -2.5722   -0.9021 N.am      2 UNK        -0.4546 
     35 C          26.5719   -3.0569   -1.6976 C.2       1 UNK         0.5154 
     36 O          26.9510   -2.4992   -2.7271 O.2       1 UNK        -0.5181 
     37 C          27.1015    1.8599   -4.8465 C.2       5 UNK         0.5014 
     38 O          27.6848    2.9284   -5.0305 O.2       5 UNK        -0.5248 
     39 N          25.8250    1.6507   -5.2027 N.am      6 UNK        -0.4434 
     40 CA         25.0006    2.5763   -5.9862 C.3       6 UNK         0.0363 
     41 CB         23.5838    1.9942   -6.1116 C.3       6 UNK        -0.1936 
     42 C          25.5731    2.9060   -7.3830 C.2       6 UNK         0.5081 
     43 O          25.2336    3.9533   -7.9344 O.2       6 UNK        -0.5248 
     44 N          26.4375    2.0347   -7.9195 N.am      7 UNK        -0.4718 
     45 CA         27.1996    2.2270   -9.1489 C.3       7 UNK         0.0273 
     46 CB         26.6229    1.3180  -10.2504 C.3       7 UNK        -0.1935 
     47 C          28.6799    1.9376   -8.8528 C.2       7 UNK         0.5018 
     48 O          29.2888    1.0940   -9.5134 O.2       7 UNK        -0.5186 
     49 N          29.2398    2.6376   -7.8526 N.am      8 UNK        -0.4240 
     50 CA         30.6053    2.4630   -7.3334 C.3       8 UNK         0.0235 
     51 CB         30.8944    3.5339   -6.2692 C.3       8 UNK        -0.2000 
     52 C          31.7196    2.4741   -8.3958 C.2       8 UNK         0.4941 
     53 O          32.6970    1.7416   -8.2468 O.2       8 UNK        -0.5273 
     54 N          31.5365    3.2664   -9.4617 N.am      9 UNK        -0.4262 
     55 CA         32.4281    3.3274  -10.6230 C.3       9 UNK         0.0264 
     56 CB         32.0224    4.5154  -11.5103 C.3       9 UNK        -0.1955 
     57 C          32.4659    2.0270  -11.4499 C.2       9 UNK         0.5031 
     58 O          33.4894    1.7535  -12.0787 O.2       9 UNK        -0.5390 
     59 N          31.3708    1.2532  -11.4391 N.am      10 UNK        -0.4204 
     60 CA         31.2891   -0.0709  -12.0567 C.3       10 UNK         0.0237 
     61 CB         29.8517   -0.3369  -12.5355 C.3       10 UNK        -0.1985 
     62 C          31.7519   -1.1648  -11.0822 C.2       10 UNK         0.4970 
     63 O          32.3913   -2.1210  -11.5224 O.2       10 UNK        -0.4914 
     64 N          31.4328   -1.0078   -9.7882 N.am      11 UNK        -0.4285 
     65 CA         31.8898   -1.8925   -8.7055 C.3       11 UNK         0.1007 
     66 C          33.4342   -1.8897   -8.5199 C.2       11 UNK         0.5703 
     67 N          34.0774   -0.7292   -8.4928 N.am      11 UNK        -0.7361 
     68 O          34.0522   -2.9461   -8.4120 O.2       11 UNK        -0.4986 
     69 C69        31.1477   -1.5962   -7.3746 C.3       12 UNK        -0.0947 
     70 S70        31.1495   -3.0300   -6.2441 S.3       12 UNK        -0.2240 
     71 C71        32.4275   -2.5685   -5.0351 C.3       12 UNK         0.0194 
     72 H72        24.8601   -7.6023   -3.5703 H         1 UNK         0.0906 
     73 H73        25.0074   -6.2959   -4.7491 H         1 UNK         0.0906 
     74 H74        26.4483   -7.1476   -4.1903 H         1 UNK         0.0906 
     75 H75        27.6232   -5.8493   -2.8151 H         1 UNK         0.3140 
     76 H76        26.7421   -4.7603   -0.3859 H         1 UNK         0.1085 
     77 H77        29.1805   -4.0011   -2.0798 H         1 UNK         0.0836 
     78 H78        29.1253   -5.3255   -0.9463 H         1 UNK         0.0836 
     79 H79        31.5023   -3.8666   -0.2795 H         1 UNK         0.0731 
     80 H80        31.4395   -2.3846    0.6364 H         1 UNK         0.0731 
     81 H81        31.8837   -3.7361   -2.6354 H         1 UNK         0.1312 
     82 H82        31.6648    0.0230   -4.6767 H         1 UNK         0.1406 
     83 H83        30.4665   -0.2573   -0.5663 H         1 UNK         0.1631 
     84 H84        30.7398    1.9238   -3.6649 H         1 UNK         0.0717 
     85 H85        31.4416    2.0639   -2.0771 H         1 UNK         0.0717 
     86 H86        28.2050   -0.2420   -2.2913 H         1 UNK         0.0934 
     87 H87        26.9103    0.9111   -2.3053 H         1 UNK         0.0934 
     88 H88        28.8926    0.7246   -4.6319 H         1 UNK         0.0739 
     89 H89        27.1212   -1.2918   -3.9456 H         1 UNK         0.3093 
     90 H90        26.2323   -2.5063   -7.1859 H         1 UNK         0.0818 
     91 H91        28.0900   -3.5339   -4.9759 H         1 UNK         0.0819 
     92 H92        27.0953   -4.5709   -5.9992 H         1 UNK         0.0819 
     93 H93        28.3515   -3.5812   -6.7156 H         1 UNK         0.0819 
     94 H94        25.6714   -2.9357   -4.3086 H         1 UNK         0.3041 
     95 H95        22.4420   -1.5599   -4.5013 H         1 UNK         0.0784 
     96 H96        21.9085   -3.7625   -5.5304 H         1 UNK         0.0793 
     97 H97        23.0455   -4.5672   -4.4589 H         1 UNK         0.0793 
     98 H98        21.6022   -3.7972   -3.8017 H         1 UNK         0.0793 
     99 H99        23.8135   -3.1768   -2.5370 H         1 UNK         0.3024 
    100 H100       25.6138   -0.5053   -1.0290 H         1 UNK         0.1171 
    101 H101       24.2986   -1.1036    0.9750 H         1 UNK         0.0786 
    102 H102       23.2970   -0.1875   -0.1372 H         1 UNK         0.0786 
    103 H103       23.0968   -1.9304   -0.0177 H         1 UNK         0.0786 
    104 H104       25.3317   -3.1131   -0.0949 H         1 UNK         0.2977 
    105 H105       25.3987    0.7686   -4.9499 H         1 UNK         0.3127 
    106 H106       24.9415    3.5136   -5.4295 H         1 UNK         0.0770 
    107 H107       23.5845    1.0495   -6.6569 H         1 UNK         0.0814 
    108 H108       22.9257    2.6797   -6.6473 H         1 UNK         0.0814 
    109 H109       23.1384    1.8158   -5.1324 H         1 UNK         0.0814 
    110 H110       26.6920    1.1992   -7.3954 H         1 UNK         0.2983 
    111 H111       27.1373    3.2642   -9.4848 H         1 UNK         0.0947 
    112 H112       27.1657    1.4454  -11.1878 H         1 UNK         0.0806 
    113 H113       25.5761    1.5495  -10.4468 H         1 UNK         0.0806 
    114 H114       26.6875    0.2645   -9.9741 H         1 UNK         0.0806 
    115 H115       28.6454    3.2683   -7.3311 H         1 UNK         0.3000 
    116 H116       30.6302    1.4862   -6.8480 H         1 UNK         0.0850 
    117 H117       31.8930    3.4074   -5.8481 H         1 UNK         0.0810 
    118 H118       30.1900    3.4792   -5.4407 H         1 UNK         0.0810 
    119 H119       30.8411    4.5406   -6.6854 H         1 UNK         0.0810 
    120 H120       30.7047    3.8378   -9.4934 H         1 UNK         0.3040 
    121 H121       33.4404    3.5066  -10.2541 H         1 UNK         0.0766 
    122 H122       32.0765    5.4570  -10.9635 H         1 UNK         0.0812 
    123 H123       31.0074    4.4057  -11.8943 H         1 UNK         0.0812 
    124 H124       32.6878    4.6045  -12.3704 H         1 UNK         0.0812 
    125 H125       30.5885    1.5123  -10.8442 H         1 UNK         0.3205 
    126 H126       31.9420   -0.1027  -12.9318 H         1 UNK         0.0754 
    127 H127       29.7868   -1.2955  -13.0519 H         1 UNK         0.0769 
    128 H128       29.5183    0.4307  -13.2340 H         1 UNK         0.0769 
    129 H129       29.1426   -0.3671  -11.7077 H         1 UNK         0.0769 
    130 H130       30.8555   -0.2189   -9.5208 H         1 UNK         0.2981 
    131 H131       31.6116   -2.9017   -9.0164 H         1 UNK         0.0541 
    132 H132       33.5657    0.1506   -8.5207 H         1 UNK         0.3459 
    133 H133       35.0782   -0.7223   -8.3827 H         1 UNK         0.3459 
    134 H134       31.5579   -0.7152   -6.8812 H         1 UNK         0.0612 
    135 H135       30.1016   -1.3624   -7.5777 H         1 UNK         0.0612 
    136 H136       33.1592   -1.9001   -5.4908 H         1 UNK         0.0624 
    137 H137       32.9783   -3.4693   -4.7604 H         1 UNK         0.0624 
@<TRIPOS>BOND
     1    1    2 1    
     2    1   72 1    
     3    1   73 1    
     4    1   74 1    
     5    2    3 2    
     6    2    4 am   BACKBONE|DICT|INTERRES
     7    4    5 1    
     8    4   75 1    
     9    5    6 1    
    10    5   35 1    
    11    5   76 1    
    12    6    7 1    
    13    6   77 1    
    14    6   78 1    
    15    7    8 1    
    16    8    9 1    
    17    8   79 1    
    18    8   80 1    
    19    9   10 ar   
    20    9   14 ar   
    21   10   11 ar   
    22   10   81 1    
    23   11   12 ar   
    24   11   71 1    
    25   12   13 ar   
    26   12   82 1    
    27   13   14 ar   
    28   13   15 1    
    29   14   83 1    
    30   15   16 1    
    31   15   84 1    
    32   15   85 1    
    33   16   17 1    
    34   17   18 1    
    35   17   86 1    
    36   17   87 1    
    37   18   19 1    
    38   18   37 1    
    39   18   88 1    
    40   19   20 am   BACKBONE|DICT|INTERRES
    41   19   89 1    
    42   20   21 2    
    43   20   22 1    
    44   22   23 1    
    45   22   24 1    
    46   22   90 1    
    47   23   91 1    
    48   23   92 1    
    49   23   93 1    
    50   24   25 am   BACKBONE|DICT|INTERRES
    51   24   94 1    
    52   25   26 2    
    53   25   27 1    
    54   27   28 1    
    55   27   29 1    
    56   27   95 1    
    57   28   96 1    
    58   28   97 1    
    59   28   98 1    
    60   29   30 am   BACKBONE|DICT|INTERRES
    61   29   99 1    
    62   30   31 2    
    63   30   32 1    
    64   32   33 1    
    65   32   34 1    
    66   32  100 1    
    67   33  101 1    
    68   33  102 1    
    69   33  103 1    
    70   34   35 am   BACKBONE|DICT|INTERRES
    71   34  104 1    
    72   35   36 2    
    73   37   38 2    
    74   37   39 am   BACKBONE|DICT|INTERRES
    75   39   40 1    
    76   39  105 1    
    77   40   41 1    
    78   40   42 1    
    79   40  106 1    
    80   41  107 1    
    81   41  108 1    
    82   41  109 1    
    83   42   43 2    
    84   42   44 am   BACKBONE|DICT|INTERRES
    85   44   45 1    
    86   44  110 1    
    87   45   46 1    
    88   45   47 1    
    89   45  111 1    
    90   46  112 1    
    91   46  113 1    
    92   46  114 1    
    93   47   48 2    
    94   47   49 am   BACKBONE|DICT|INTERRES
    95   49   50 1    
    96   49  115 1    
    97   50   51 1    
    98   50   52 1    
    99   50  116 1    
   100   51  117 1    
   101   51  118 1    
   102   51  119 1    
   103   52   53 2    
   104   52   54 am   BACKBONE|DICT|INTERRES
   105   54   55 1    
   106   54  120 1    
   107   55   56 1    
   108   55   57 1    
   109   55  121 1    
   110   56  122 1    
   111   56  123 1    
   112   56  124 1    
   113   57   58 2    
   114   57   59 am   BACKBONE|DICT|INTERRES
   115   59   60 1    
   116   59  125 1    
   117   60   61 1    
   118   60   62 1    
   119   60  126 1    
   120   61  127 1    
   121   61  128 1    
   122   61  129 1    
   123   62   63 2    
   124   62   64 am   BACKBONE|DICT|INTERRES
   125   64   65 1    
   126   64  130 1    
   127   65   66 1    
   128   65   69 1    
   129   65  131 1    
   130   66   67 am   BACKBONE|DICT|INTERRES
   131   66   68 2    
   132   67  132 1    
   133   67  133 1    
   134   69   70 1    
   135   69  134 1    
   136   69  135 1    
   137   70   71 1    
   138   71  136 1    
   139   71  137 1    
@<TRIPOS>SUBSTRUCTURE
     1 UNK         1 GROUP             0       ****    0 ROOT    
