@<TRIPOS>MOLECULE
3R137
137   139    1
SMALL
USER_CHARGES


@<TRIPOS>ATOM
      1 CA         31.0621   -5.4486   -5.5464 C.3       0 UNK        -0.2020 
      2 C          29.7989   -5.8619   -4.8062 C.2       0 UNK         0.4855 
      3 O          29.2823   -6.9552   -5.0365 O.2       0 UNK        -0.5197 
      4 N          29.3010   -4.9953   -3.9149 N.am      1 UNK        -0.4892 
      5 CA         28.0912   -5.2174   -3.1107 C.3       1 UNK         0.0835 
      6 C6         27.9877   -4.1927   -1.9545 C.3       12 UNK        -0.0855 
      7 S7         29.1749   -4.5064   -0.6047 S.3       12 UNK        -0.2931 
      8 C8         30.6688   -3.5884   -1.1221 C.3       12 UNK         0.0378 
      9 C9         30.5059   -2.0831   -1.3442 C.ar      12 UNK        -0.0802 
     10 C10        31.4853   -1.4197   -2.0901 C.ar      12 UNK        -0.0944 
     11 C11        31.4180   -0.0402   -2.2993 C.ar      12 UNK        -0.0787 
     12 C12        30.3500    0.6834   -1.7617 C.ar      12 UNK        -0.0862 
     13 C13        29.3579    0.0391   -1.0145 C.ar      12 UNK        -0.0733 
     14 C14        29.4484   -1.3399   -0.7997 C.ar      12 UNK        -0.0832 
     15 C15        28.2150    0.8369   -0.3950 C.3       12 UNK         0.0240 
     16 S16        26.6691    0.7347   -1.3610 S.3       12 UNK        -0.2522 
     17 C17        27.1139    1.6298   -2.8863 C.3       12 UNK        -0.0967 
     18 CA         26.9495    0.7143   -4.1363 C.3       5 UNK         0.0660 
     19 N          25.5538    0.5670   -4.5659 N.am      5 UNK        -0.4015 
     20 C          24.7928    1.5260   -5.1209 C.2       4 UNK         0.4946 
     21 O          25.1637    2.6950   -5.2474 O.2       4 UNK        -0.5353 
     22 CA         23.4025    1.1398   -5.6642 C.3       4 UNK         0.0277 
     23 CB         23.2585    1.5605   -7.1378 C.3       4 UNK        -0.1981 
     24 N          23.1131   -0.2920   -5.5494 N.am      4 UNK        -0.4209 
     25 C          22.5126   -0.8641   -4.4977 C.2       3 UNK         0.4942 
     26 O          22.0912   -0.2381   -3.5245 O.2       3 UNK        -0.5208 
     27 CA         22.3658   -2.3977   -4.5227 C.3       3 UNK         0.0250 
     28 CB         20.9862   -2.7922   -5.0753 C.3       3 UNK        -0.1990 
     29 N          23.4088   -3.1192   -5.2668 N.am      3 UNK        -0.4232 
     30 C          24.7218   -3.0640   -5.0044 C.2       2 UNK         0.4993 
     31 O          25.2251   -2.2855   -4.1906 O.2       2 UNK        -0.5286 
     32 CA         25.6308   -4.0093   -5.8099 C.3       2 UNK         0.0209 
     33 CB         26.0791   -3.3424   -7.1176 C.3       2 UNK        -0.1931 
     34 N          26.8176   -4.3667   -5.0335 N.am      2 UNK        -0.4546 
     35 C          26.8030   -5.1642   -3.9569 C.2       1 UNK         0.5154 
     36 O          25.8205   -5.8216   -3.6079 O.2       1 UNK        -0.5181 
     37 C          27.8359    1.0701   -5.3507 C.2       5 UNK         0.5014 
     38 O          27.6603    0.4577   -6.4080 O.2       5 UNK        -0.5248 
     39 N          28.7674    2.0237   -5.2024 N.am      6 UNK        -0.4434 
     40 CA         29.7990    2.3883   -6.1801 C.3       6 UNK         0.0363 
     41 CB         30.6485    3.5372   -5.6158 C.3       6 UNK        -0.1936 
     42 C          29.2866    2.7435   -7.5840 C.2       6 UNK         0.5081 
     43 O          30.0008    2.4943   -8.5547 O.2       6 UNK        -0.5248 
     44 N          28.0561    3.2661   -7.6711 N.am      7 UNK        -0.4718 
     45 CA         27.3652    3.5866   -8.9224 C.3       7 UNK         0.0273 
     46 CB         26.0643    4.3372   -8.5961 C.3       7 UNK        -0.1935 
     47 C          27.0714    2.3630   -9.8120 C.2       7 UNK         0.5018 
     48 O          26.9426    2.5332  -11.0251 O.2       7 UNK        -0.5186 
     49 N          26.9750    1.1696   -9.2091 N.am      8 UNK        -0.4240 
     50 CA         26.7712   -0.1013   -9.9084 C.3       8 UNK         0.0235 
     51 CB         25.4501   -0.7319   -9.4430 C.3       8 UNK        -0.2000 
     52 C          27.9482   -1.0675   -9.7021 C.2       8 UNK         0.4941 
     53 O          28.2748   -1.8121  -10.6266 O.2       8 UNK        -0.5273 
     54 N          28.5736   -1.0436   -8.5155 N.am      9 UNK        -0.4262 
     55 CA         29.7176   -1.8868   -8.1572 C.3       9 UNK         0.0264 
     56 CB         29.8871   -1.8926   -6.6282 C.3       9 UNK        -0.1955 
     57 C          31.0335   -1.4725   -8.8401 C.2       9 UNK         0.5031 
     58 O          31.9300   -2.3111   -8.9398 O.2       9 UNK        -0.5390 
     59 N          31.1289   -0.2087   -9.2880 N.am      10 UNK        -0.4204 
     60 CA         32.2829    0.4141   -9.9486 C.3       10 UNK         0.0237 
     61 CB         32.5352   -0.2205  -11.3336 C.3       10 UNK        -0.1985 
     62 C          33.5313    0.4269   -9.0464 C.2       10 UNK         0.4970 
     63 O          34.5969   -0.0423   -9.4513 O.2       10 UNK        -0.4914 
     64 N          33.3624    0.9568   -7.8276 N.am      11 UNK        -0.4285 
     65 CA         34.4107    1.0499   -6.7963 C.3       11 UNK         0.1007 
     66 C          35.5906    2.0073   -7.1407 C.2       11 UNK         0.5703 
     67 N          35.4543    2.9166   -8.0991 N.am      11 UNK        -0.7361 
     68 O          36.6505    1.9195   -6.5253 O.2       11 UNK        -0.4986 
     69 C69        33.8238    1.4062   -5.4053 C.3       12 UNK        -0.0947 
     70 S70        32.5466    0.2421   -4.8242 S.3       12 UNK        -0.2240 
     71 C71        32.5290    0.6723   -3.0574 C.3       12 UNK         0.0194 
     72 H72        31.5241   -4.5663   -5.1039 H         1 UNK         0.0906 
     73 H73        31.7932   -6.2563   -5.5215 H         1 UNK         0.0906 
     74 H74        30.8325   -5.2293   -6.5890 H         1 UNK         0.0906 
     75 H75        29.7723   -4.1164   -3.7592 H         1 UNK         0.3140 
     76 H76        28.1444   -6.2220   -2.6843 H         1 UNK         0.1085 
     77 H77        26.9979   -4.2336   -1.4937 H         1 UNK         0.0836 
     78 H78        28.0887   -3.1739   -2.3315 H         1 UNK         0.0836 
     79 H79        31.0673   -4.0547   -2.0234 H         1 UNK         0.0731 
     80 H80        31.4289   -3.7318   -0.3530 H         1 UNK         0.0731 
     81 H81        32.3188   -1.9750   -2.4990 H         1 UNK         0.1312 
     82 H82        30.3060    1.7541   -1.9044 H         1 UNK         0.1406 
     83 H83        28.6909   -1.8255   -0.2006 H         1 UNK         0.1631 
     84 H84        28.4974    1.8841   -0.2759 H         1 UNK         0.0717 
     85 H85        28.0198    0.4645    0.6117 H         1 UNK         0.0717 
     86 H86        26.4959    2.5255   -2.9631 H         1 UNK         0.0934 
     87 H87        28.1314    1.9920   -2.7626 H         1 UNK         0.0934 
     88 H88        27.2811   -0.2886   -3.8609 H         1 UNK         0.0739 
     89 H89        25.1935   -0.3808   -4.4987 H         1 UNK         0.3093 
     90 H90        22.6673    1.7036   -5.0860 H         1 UNK         0.0818 
     91 H91        23.3046    2.6455   -7.2372 H         1 UNK         0.0819 
     92 H92        24.0537    1.1465   -7.7564 H         1 UNK         0.0819 
     93 H93        22.3028    1.2424   -7.5547 H         1 UNK         0.0819 
     94 H94        23.4259   -0.8854   -6.3037 H         1 UNK         0.3041 
     95 H95        22.4239   -2.7361   -3.4859 H         1 UNK         0.0784 
     96 H96        20.1870   -2.2927   -4.5253 H         1 UNK         0.0793 
     97 H97        20.8785   -2.5188   -6.1257 H         1 UNK         0.0793 
     98 H98        20.8134   -3.8650   -4.9866 H         1 UNK         0.0793 
     99 H99        23.0835   -3.7678   -5.9699 H         1 UNK         0.3024 
    100 H100       25.0813   -4.9246   -6.0425 H         1 UNK         0.1171 
    101 H101       25.2242   -3.1603   -7.7688 H         1 UNK         0.0786 
    102 H102       26.5676   -2.3852   -6.9315 H         1 UNK         0.0786 
    103 H103       26.7758   -3.9722   -7.6716 H         1 UNK         0.0786 
    104 H104       27.6629   -3.8542   -5.2295 H         1 UNK         0.2977 
    105 H105       28.8142    2.5063   -4.3183 H         1 UNK         0.3127 
    106 H106       30.4399    1.5155   -6.3006 H         1 UNK         0.0770 
    107 H107       30.0498    4.4315   -5.4386 H         1 UNK         0.0814 
    108 H108       31.4454    3.8123   -6.3084 H         1 UNK         0.0814 
    109 H109       31.1220    3.2578   -4.6747 H         1 UNK         0.0814 
    110 H110       27.5349    3.4038   -6.8158 H         1 UNK         0.2983 
    111 H111       28.0126    4.2526   -9.4971 H         1 UNK         0.0947 
    112 H112       25.5233    4.5995   -9.5064 H         1 UNK         0.0806 
    113 H113       26.2650    5.2657   -8.0614 H         1 UNK         0.0806 
    114 H114       25.3963    3.7339   -7.9807 H         1 UNK         0.0806 
    115 H115       27.1149    1.1242   -8.2045 H         1 UNK         0.3000 
    116 H116       26.6959    0.0638  -10.9854 H         1 UNK         0.0850 
    117 H117       25.3228   -1.7330   -9.8574 H         1 UNK         0.0810 
    118 H118       24.5978   -0.1380   -9.7728 H         1 UNK         0.0810 
    119 H119       25.4030   -0.8094   -8.3574 H         1 UNK         0.0810 
    120 H120       28.2181   -0.4391   -7.7749 H         1 UNK         0.3040 
    121 H121       29.4956   -2.9079   -8.4751 H         1 UNK         0.0766 
    122 H122       30.0930   -0.8948   -6.2427 H         1 UNK         0.0812 
    123 H123       30.7206   -2.5287   -6.3294 H         1 UNK         0.0812 
    124 H124       28.9943   -2.2652   -6.1280 H         1 UNK         0.0812 
    125 H125       30.3480    0.4157   -9.1226 H         1 UNK         0.3205 
    126 H126       32.0157    1.4586  -10.1155 H         1 UNK         0.0754 
    127 H127       33.3222    0.3123  -11.8687 H         1 UNK         0.0769 
    128 H128       31.6397   -0.1842  -11.9540 H         1 UNK         0.0769 
    129 H129       32.8453   -1.2630  -11.2547 H         1 UNK         0.0769 
    130 H130       32.4557    1.3176   -7.5751 H         1 UNK         0.2981 
    131 H131       34.8529    0.0551   -6.7145 H         1 UNK         0.0541 
    132 H132       36.2274    3.5267   -8.3130 H         1 UNK         0.3459 
    133 H133       34.5905    2.9982   -8.6099 H         1 UNK         0.3459 
    134 H134       33.3960    2.4096   -5.4180 H         1 UNK         0.0612 
    135 H135       34.6203    1.4243   -4.6587 H         1 UNK         0.0612 
    136 H136       33.4912    0.4097   -2.6154 H         1 UNK         0.0624 
    137 H137       32.4276    1.7540   -2.9567 H         1 UNK         0.0624 
@<TRIPOS>BOND
     1    1    2 1    
     2    1   72 1    
     3    1   73 1    
     4    1   74 1    
     5    2    3 2    
     6    2    4 am   BACKBONE|DICT|INTERRES
     7    4    5 1    
     8    4   75 1    
     9    5    6 1    
    10    5   35 1    
    11    5   76 1    
    12    6    7 1    
    13    6   77 1    
    14    6   78 1    
    15    7    8 1    
    16    8    9 1    
    17    8   79 1    
    18    8   80 1    
    19    9   10 ar   
    20    9   14 ar   
    21   10   11 ar   
    22   10   81 1    
    23   11   12 ar   
    24   11   71 1    
    25   12   13 ar   
    26   12   82 1    
    27   13   14 ar   
    28   13   15 1    
    29   14   83 1    
    30   15   16 1    
    31   15   84 1    
    32   15   85 1    
    33   16   17 1    
    34   17   18 1    
    35   17   86 1    
    36   17   87 1    
    37   18   19 1    
    38   18   37 1    
    39   18   88 1    
    40   19   20 am   BACKBONE|DICT|INTERRES
    41   19   89 1    
    42   20   21 2    
    43   20   22 1    
    44   22   23 1    
    45   22   24 1    
    46   22   90 1    
    47   23   91 1    
    48   23   92 1    
    49   23   93 1    
    50   24   25 am   BACKBONE|DICT|INTERRES
    51   24   94 1    
    52   25   26 2    
    53   25   27 1    
    54   27   28 1    
    55   27   29 1    
    56   27   95 1    
    57   28   96 1    
    58   28   97 1    
    59   28   98 1    
    60   29   30 am   BACKBONE|DICT|INTERRES
    61   29   99 1    
    62   30   31 2    
    63   30   32 1    
    64   32   33 1    
    65   32   34 1    
    66   32  100 1    
    67   33  101 1    
    68   33  102 1    
    69   33  103 1    
    70   34   35 am   BACKBONE|DICT|INTERRES
    71   34  104 1    
    72   35   36 2    
    73   37   38 2    
    74   37   39 am   BACKBONE|DICT|INTERRES
    75   39   40 1    
    76   39  105 1    
    77   40   41 1    
    78   40   42 1    
    79   40  106 1    
    80   41  107 1    
    81   41  108 1    
    82   41  109 1    
    83   42   43 2    
    84   42   44 am   BACKBONE|DICT|INTERRES
    85   44   45 1    
    86   44  110 1    
    87   45   46 1    
    88   45   47 1    
    89   45  111 1    
    90   46  112 1    
    91   46  113 1    
    92   46  114 1    
    93   47   48 2    
    94   47   49 am   BACKBONE|DICT|INTERRES
    95   49   50 1    
    96   49  115 1    
    97   50   51 1    
    98   50   52 1    
    99   50  116 1    
   100   51  117 1    
   101   51  118 1    
   102   51  119 1    
   103   52   53 2    
   104   52   54 am   BACKBONE|DICT|INTERRES
   105   54   55 1    
   106   54  120 1    
   107   55   56 1    
   108   55   57 1    
   109   55  121 1    
   110   56  122 1    
   111   56  123 1    
   112   56  124 1    
   113   57   58 2    
   114   57   59 am   BACKBONE|DICT|INTERRES
   115   59   60 1    
   116   59  125 1    
   117   60   61 1    
   118   60   62 1    
   119   60  126 1    
   120   61  127 1    
   121   61  128 1    
   122   61  129 1    
   123   62   63 2    
   124   62   64 am   BACKBONE|DICT|INTERRES
   125   64   65 1    
   126   64  130 1    
   127   65   66 1    
   128   65   69 1    
   129   65  131 1    
   130   66   67 am   BACKBONE|DICT|INTERRES
   131   66   68 2    
   132   67  132 1    
   133   67  133 1    
   134   69   70 1    
   135   69  134 1    
   136   69  135 1    
   137   70   71 1    
   138   71  136 1    
   139   71  137 1    
@<TRIPOS>SUBSTRUCTURE
     1 UNK         1 GROUP             0       ****    0 ROOT    
