@<TRIPOS>MOLECULE
3R137
137   139    1
SMALL
USER_CHARGES


@<TRIPOS>ATOM
      1 CA         31.1212    1.4974   -3.0026 C.3       0 UNK        -0.2020 
      2 C          30.2350    0.2764   -2.8223 C.2       0 UNK         0.4855 
      3 O          29.4726   -0.0700   -3.7230 O.2       0 UNK        -0.5197 
      4 N          30.3494   -0.3826   -1.6635 N.am      1 UNK        -0.4892 
      5 CA         29.5907   -1.5808   -1.3013 C.3       1 UNK         0.0835 
      6 C6         30.2398   -2.2729   -0.0732 C.3       12 UNK        -0.0855 
      7 S7         29.5222   -3.8975    0.3559 S.3       12 UNK        -0.2931 
      8 C8         30.5691   -5.0364   -0.6043 C.3       12 UNK         0.0378 
      9 C9         30.3497   -4.8681   -2.1001 C.ar      12 UNK        -0.0802 
     10 C10        31.3596   -4.3408   -2.9089 C.ar      12 UNK        -0.0944 
     11 C11        31.1553   -4.1790   -4.2817 C.ar      12 UNK        -0.0787 
     12 C12        29.9272   -4.5442   -4.8441 C.ar      12 UNK        -0.0862 
     13 C13        28.9039   -5.0752   -4.0447 C.ar      12 UNK        -0.0733 
     14 C14        29.1308   -5.2384   -2.6749 C.ar      12 UNK        -0.0832 
     15 C15        27.5673   -5.5478   -4.6191 C.3       12 UNK         0.0240 
     16 S16        27.0540   -4.7530   -6.1770 S.3       12 UNK        -0.2522 
     17 C17        26.5570   -3.0915   -5.6094 C.3       12 UNK        -0.0967 
     18 CA         26.0602   -2.2204   -6.7916 C.3       5 UNK         0.0660 
     19 N          25.0959   -1.2041   -6.3601 N.am      5 UNK        -0.4015 
     20 C          24.1810   -0.6545   -7.1746 C.2       4 UNK         0.4946 
     21 O          23.9688   -1.0640   -8.3182 O.2       4 UNK        -0.5353 
     22 CA         23.3912    0.5738   -6.6717 C.3       4 UNK         0.0277 
     23 CB         21.9270    0.5746   -7.1636 C.3       4 UNK        -0.1981 
     24 N          23.4620    0.8052   -5.2237 N.am      4 UNK        -0.4209 
     25 C          22.9771    0.0258   -4.2476 C.2       3 UNK         0.4942 
     26 O          22.3556   -1.0235   -4.4276 O.2       3 UNK        -0.5208 
     27 CA         23.2659    0.4998   -2.8129 C.3       3 UNK         0.0250 
     28 CB         21.9605    0.8518   -2.0801 C.3       3 UNK        -0.1990 
     29 N          24.0072   -0.4973   -2.0365 N.am      3 UNK        -0.4232 
     30 C          25.1881   -1.0292   -2.3821 C.2       2 UNK         0.4993 
     31 O          25.7882   -0.7577   -3.4263 O.2       2 UNK        -0.5286 
     32 CA         25.7703   -2.0624   -1.4031 C.3       2 UNK         0.0209 
     33 CB         25.1495   -3.4494   -1.6392 C.3       2 UNK        -0.1931 
     34 N          27.2244   -2.1708   -1.5191 N.am      2 UNK        -0.4546 
     35 C          28.0980   -1.2566   -1.0775 C.2       1 UNK         0.5154 
     36 O          27.7741   -0.2264   -0.4787 O.2       1 UNK        -0.5181 
     37 C          27.2271   -1.5549   -7.5512 C.2       5 UNK         0.5014 
     38 O          27.4046   -0.3366   -7.4636 O.2       5 UNK        -0.5248 
     39 N          27.9992   -2.3746   -8.2822 N.am      6 UNK        -0.4434 
     40 CA         29.1814   -2.0080   -9.0740 C.3       6 UNK         0.0363 
     41 CB         30.3687   -1.6921   -8.1424 C.3       6 UNK        -0.1936 
     42 C          28.8865   -0.8736  -10.0714 C.2       6 UNK         0.5081 
     43 O          29.5553    0.1623  -10.0447 O.2       6 UNK        -0.5248 
     44 N          27.8335   -1.0721  -10.8785 N.am      7 UNK        -0.4718 
     45 CA         27.2212   -0.1457  -11.8435 C.3       7 UNK         0.0273 
     46 CB         28.2082    0.2430  -12.9631 C.3       7 UNK        -0.1935 
     47 C          26.5887    1.0983  -11.1921 C.2       7 UNK         0.5018 
     48 O          25.3957    1.3412  -11.3761 O.2       7 UNK        -0.5186 
     49 N          27.3984    1.8476  -10.4417 N.am      8 UNK        -0.4240 
     50 CA         27.0418    3.0359   -9.6771 C.3       8 UNK         0.0235 
     51 CB         26.8150    4.2388  -10.6183 C.3       8 UNK        -0.2000 
     52 C          28.1372    3.2863   -8.6296 C.2       8 UNK         0.4941 
     53 O          28.7309    4.3661   -8.6129 O.2       8 UNK        -0.5273 
     54 N          28.4039    2.2711   -7.7922 N.am      9 UNK        -0.4262 
     55 CA         29.3883    2.2556   -6.7031 C.3       9 UNK         0.0264 
     56 CB         28.9944    3.2689   -5.6055 C.3       9 UNK        -0.1955 
     57 C          30.8458    2.4188   -7.1811 C.2       9 UNK         0.5031 
     58 O          31.6527    3.0336   -6.4795 O.2       9 UNK        -0.5390 
     59 N          31.1779    1.8548   -8.3544 N.am      10 UNK        -0.4204 
     60 CA         32.4923    1.9809   -8.9985 C.3       10 UNK         0.0237 
     61 CB         32.4382    1.3755  -10.4103 C.3       10 UNK        -0.1985 
     62 C          33.6614    1.3748   -8.2012 C.2       10 UNK         0.4970 
     63 O          34.7978    1.8101   -8.3918 O.2       10 UNK        -0.4914 
     64 N          33.3729    0.4046   -7.3234 N.am      11 UNK        -0.4285 
     65 CA         34.3379   -0.1685   -6.3748 C.3       11 UNK         0.1007 
     66 C          34.6476    0.7268   -5.1366 C.2       11 UNK         0.5703 
     67 N          34.0049    1.8761   -4.9570 N.am      11 UNK        -0.7361 
     68 O          35.5108    0.3817   -4.3329 O.2       11 UNK        -0.4986 
     69 C69        33.9807   -1.6309   -6.0000 C.3       12 UNK        -0.0947 
     70 S70        32.3938   -1.8397   -5.1247 S.3       12 UNK        -0.2240 
     71 C71        32.2845   -3.6550   -5.1562 C.3       12 UNK         0.0194 
     72 H72        30.6009    2.3957   -2.6722 H         1 UNK         0.0906 
     73 H73        31.3830    1.6159   -4.0529 H         1 UNK         0.0906 
     74 H74        32.0485    1.4066   -2.4372 H         1 UNK         0.0906 
     75 H75        30.9651   -0.0209   -0.9494 H         1 UNK         0.3140 
     76 H76        29.6552   -2.2524   -2.1584 H         1 UNK         0.1085 
     77 H77        30.1622   -1.6295    0.8054 H         1 UNK         0.0836 
     78 H78        31.3090   -2.4074   -0.2459 H         1 UNK         0.0836 
     79 H79        31.6161   -4.8825   -0.3383 H         1 UNK         0.0731 
     80 H80        30.3292   -6.0621   -0.3205 H         1 UNK         0.0731 
     81 H81        32.3079   -4.0567   -2.4733 H         1 UNK         0.1312 
     82 H82        29.7833   -4.4320   -5.9093 H         1 UNK         0.1406 
     83 H83        28.3570   -5.6603   -2.0468 H         1 UNK         0.1631 
     84 H84        26.7716   -5.4142   -3.8851 H         1 UNK         0.0717 
     85 H85        27.6403   -6.6213   -4.7975 H         1 UNK         0.0717 
     86 H86        25.7503   -3.2281   -4.8885 H         1 UNK         0.0934 
     87 H87        27.3735   -2.6124   -5.0630 H         1 UNK         0.0934 
     88 H88        25.5426   -2.8732   -7.4984 H         1 UNK         0.0739 
     89 H89        25.2493   -0.8111   -5.4370 H         1 UNK         0.3093 
     90 H90        23.8833    1.4341   -7.1280 H         1 UNK         0.0818 
     91 H91        21.8794    0.5753   -8.2533 H         1 UNK         0.0819 
     92 H92        21.3823   -0.3043   -6.8179 H         1 UNK         0.0819 
     93 H93        21.3919    1.4593   -6.8189 H         1 UNK         0.0819 
     94 H94        23.9787    1.6301   -4.9500 H         1 UNK         0.3041 
     95 H95        23.8837    1.3995   -2.8535 H         1 UNK         0.0784 
     96 H96        21.3956    1.6056   -2.6305 H         1 UNK         0.0793 
     97 H97        21.3141   -0.0196   -1.9659 H         1 UNK         0.0793 
     98 H98        22.1571    1.2576   -1.0875 H         1 UNK         0.0793 
     99 H99        23.5677   -0.8099   -1.1830 H         1 UNK         0.3024 
    100 H100       25.5359   -1.7418   -0.3851 H         1 UNK         0.1171 
    101 H101       24.0653   -3.4203   -1.5224 H         1 UNK         0.0786 
    102 H102       25.3565   -3.8212   -2.6420 H         1 UNK         0.0786 
    103 H103       25.5300   -4.1807   -0.9257 H         1 UNK         0.0786 
    104 H104       27.5785   -2.9773   -2.0109 H         1 UNK         0.2977 
    105 H105       27.7679   -3.3596   -8.2735 H         1 UNK         0.3127 
    106 H106       29.4514   -2.8812   -9.6698 H         1 UNK         0.0770 
    107 H107       30.1592   -0.8439   -7.4907 H         1 UNK         0.0814 
    108 H108       31.2678   -1.4594   -8.7140 H         1 UNK         0.0814 
    109 H109       30.6016   -2.5461   -7.5084 H         1 UNK         0.0814 
    110 H110       27.3366   -1.9450  -10.7644 H         1 UNK         0.2983 
    111 H111       26.4045   -0.6995  -12.3101 H         1 UNK         0.0947 
    112 H112       29.0662    0.7994  -12.5848 H         1 UNK         0.0806 
    113 H113       27.7200    0.8716  -13.7090 H         1 UNK         0.0806 
    114 H114       28.5853   -0.6391  -13.4805 H         1 UNK         0.0806 
    115 H115       28.3474    1.4986  -10.3156 H         1 UNK         0.3000 
    116 H116       26.1157    2.8373   -9.1336 H         1 UNK         0.0850 
    117 H117       26.5650    5.1367  -10.0517 H         1 UNK         0.0810 
    118 H118       25.9926    4.0583  -11.3102 H         1 UNK         0.0810 
    119 H119       27.7059    4.4597  -11.2074 H         1 UNK         0.0810 
    120 H120       27.8864    1.3971   -7.8879 H         1 UNK         0.3040 
    121 H121       29.3321    1.2604   -6.2594 H         1 UNK         0.0766 
    122 H122       29.0499    4.2975   -5.9620 H         1 UNK         0.0812 
    123 H123       29.6549    3.1956   -4.7436 H         1 UNK         0.0812 
    124 H124       27.9806    3.0889   -5.2483 H         1 UNK         0.0812 
    125 H125       30.4744    1.3327   -8.8732 H         1 UNK         0.3205 
    126 H126       32.6964    3.0489   -9.0989 H         1 UNK         0.0754 
    127 H127       33.3823    1.5238  -10.9363 H         1 UNK         0.0769 
    128 H128       31.6565    1.8392  -11.0126 H         1 UNK         0.0769 
    129 H129       32.2469    0.3022  -10.3818 H         1 UNK         0.0769 
    130 H130       32.4138    0.1168   -7.2071 H         1 UNK         0.2981 
    131 H131       35.2920   -0.2314   -6.9016 H         1 UNK         0.0541 
    132 H132       34.2393    2.4448   -4.1598 H         1 UNK         0.3459 
    133 H133       33.2902    2.1900   -5.6041 H         1 UNK         0.3459 
    134 H134       34.7708   -2.0673   -5.3862 H         1 UNK         0.0612 
    135 H135       33.9480   -2.2340   -6.9089 H         1 UNK         0.0612 
    136 H136       32.1559   -3.9898   -6.1865 H         1 UNK         0.0624 
    137 H137       33.2307   -4.0773   -4.8140 H         1 UNK         0.0624 
@<TRIPOS>BOND
     1    1    2 1    
     2    1   72 1    
     3    1   73 1    
     4    1   74 1    
     5    2    3 2    
     6    2    4 am   BACKBONE|DICT|INTERRES
     7    4    5 1    
     8    4   75 1    
     9    5    6 1    
    10    5   35 1    
    11    5   76 1    
    12    6    7 1    
    13    6   77 1    
    14    6   78 1    
    15    7    8 1    
    16    8    9 1    
    17    8   79 1    
    18    8   80 1    
    19    9   10 ar   
    20    9   14 ar   
    21   10   11 ar   
    22   10   81 1    
    23   11   12 ar   
    24   11   71 1    
    25   12   13 ar   
    26   12   82 1    
    27   13   14 ar   
    28   13   15 1    
    29   14   83 1    
    30   15   16 1    
    31   15   84 1    
    32   15   85 1    
    33   16   17 1    
    34   17   18 1    
    35   17   86 1    
    36   17   87 1    
    37   18   19 1    
    38   18   37 1    
    39   18   88 1    
    40   19   20 am   BACKBONE|DICT|INTERRES
    41   19   89 1    
    42   20   21 2    
    43   20   22 1    
    44   22   23 1    
    45   22   24 1    
    46   22   90 1    
    47   23   91 1    
    48   23   92 1    
    49   23   93 1    
    50   24   25 am   BACKBONE|DICT|INTERRES
    51   24   94 1    
    52   25   26 2    
    53   25   27 1    
    54   27   28 1    
    55   27   29 1    
    56   27   95 1    
    57   28   96 1    
    58   28   97 1    
    59   28   98 1    
    60   29   30 am   BACKBONE|DICT|INTERRES
    61   29   99 1    
    62   30   31 2    
    63   30   32 1    
    64   32   33 1    
    65   32   34 1    
    66   32  100 1    
    67   33  101 1    
    68   33  102 1    
    69   33  103 1    
    70   34   35 am   BACKBONE|DICT|INTERRES
    71   34  104 1    
    72   35   36 2    
    73   37   38 2    
    74   37   39 am   BACKBONE|DICT|INTERRES
    75   39   40 1    
    76   39  105 1    
    77   40   41 1    
    78   40   42 1    
    79   40  106 1    
    80   41  107 1    
    81   41  108 1    
    82   41  109 1    
    83   42   43 2    
    84   42   44 am   BACKBONE|DICT|INTERRES
    85   44   45 1    
    86   44  110 1    
    87   45   46 1    
    88   45   47 1    
    89   45  111 1    
    90   46  112 1    
    91   46  113 1    
    92   46  114 1    
    93   47   48 2    
    94   47   49 am   BACKBONE|DICT|INTERRES
    95   49   50 1    
    96   49  115 1    
    97   50   51 1    
    98   50   52 1    
    99   50  116 1    
   100   51  117 1    
   101   51  118 1    
   102   51  119 1    
   103   52   53 2    
   104   52   54 am   BACKBONE|DICT|INTERRES
   105   54   55 1    
   106   54  120 1    
   107   55   56 1    
   108   55   57 1    
   109   55  121 1    
   110   56  122 1    
   111   56  123 1    
   112   56  124 1    
   113   57   58 2    
   114   57   59 am   BACKBONE|DICT|INTERRES
   115   59   60 1    
   116   59  125 1    
   117   60   61 1    
   118   60   62 1    
   119   60  126 1    
   120   61  127 1    
   121   61  128 1    
   122   61  129 1    
   123   62   63 2    
   124   62   64 am   BACKBONE|DICT|INTERRES
   125   64   65 1    
   126   64  130 1    
   127   65   66 1    
   128   65   69 1    
   129   65  131 1    
   130   66   67 am   BACKBONE|DICT|INTERRES
   131   66   68 2    
   132   67  132 1    
   133   67  133 1    
   134   69   70 1    
   135   69  134 1    
   136   69  135 1    
   137   70   71 1    
   138   71  136 1    
   139   71  137 1    
@<TRIPOS>SUBSTRUCTURE
     1 UNK         1 GROUP             0       ****    0 ROOT    
