@<TRIPOS>MOLECULE
3R137
137   139    1
SMALL
USER_CHARGES


@<TRIPOS>ATOM
      1 CA         27.4046   -3.7363    2.1184 C.3       0 UNK        -0.2020 
      2 C          28.0275   -4.3781    0.8816 C.2       0 UNK         0.4855 
      3 O          28.1019   -5.6027    0.8098 O.2       0 UNK        -0.5197 
      4 N          28.4946   -3.6111   -0.1137 N.am      1 UNK        -0.4892 
      5 CA         28.4497   -2.1453   -0.2105 C.3       1 UNK         0.0835 
      6 C6         29.3865   -1.6172   -1.3251 C.3       12 UNK        -0.0855 
      7 S7         31.1579   -1.9211   -1.0025 S.3       12 UNK        -0.2931 
      8 C8         31.4769   -3.5395   -1.7848 C.3       12 UNK         0.0378 
      9 C9         31.0119   -3.6152   -3.2339 C.ar      12 UNK        -0.0802 
     10 C10        31.6157   -2.8208   -4.2124 C.ar      12 UNK        -0.0944 
     11 C11        31.2097   -2.9007   -5.5514 C.ar      12 UNK        -0.0787 
     12 C12        30.1894   -3.7959   -5.8940 C.ar      12 UNK        -0.0862 
     13 C13        29.5747   -4.6009   -4.9271 C.ar      12 UNK        -0.0733 
     14 C14        29.9954   -4.5024   -3.5987 C.ar      12 UNK        -0.0832 
     15 C15        28.5101   -5.6369   -5.2906 C.3       12 UNK         0.0240 
     16 S16        27.3831   -5.1567   -6.6427 S.3       12 UNK        -0.2522 
     17 C17        26.3832   -3.8464   -5.8630 C.3       12 UNK        -0.0967 
     18 CA         26.1700   -2.6463   -6.8192 C.3       5 UNK         0.0660 
     19 N          24.9791   -1.8721   -6.4685 N.am      5 UNK        -0.4015 
     20 C          24.2916   -1.1100   -7.3307 C.2       4 UNK         0.4946 
     21 O          24.5384   -1.0419   -8.5348 O.2       4 UNK        -0.5353 
     22 CA         23.1360   -0.2700   -6.7577 C.3       4 UNK         0.0277 
     23 CB         21.8153   -1.0534   -6.8278 C.3       4 UNK        -0.1981 
     24 N          23.3645    0.1776   -5.3812 N.am      4 UNK        -0.4209 
     25 C          24.3189    1.0450   -5.0162 C.2       3 UNK         0.4942 
     26 O          25.1064    1.5719   -5.8009 O.2       3 UNK        -0.5208 
     27 CA         24.4503    1.3353   -3.5127 C.3       3 UNK         0.0250 
     28 CB         23.4450    2.4157   -3.0829 C.3       3 UNK        -0.1990 
     29 N          24.3109    0.1579   -2.6456 N.am      3 UNK        -0.4232 
     30 C          25.0338   -0.9664   -2.7447 C.2       2 UNK         0.4993 
     31 O          25.8097   -1.2121   -3.6718 O.2       2 UNK        -0.5286 
     32 CA         24.8676   -2.0064   -1.6269 C.3       2 UNK         0.0209 
     33 CB         24.1100   -3.2388   -2.1470 C.3       2 UNK        -0.1931 
     34 N          26.1819   -2.4191   -1.1315 N.am      2 UNK        -0.4546 
     35 C          27.0223   -1.6174   -0.4602 C.2       1 UNK         0.5154 
     36 O          26.7128   -0.4996   -0.0462 O.2       1 UNK        -0.5181 
     37 C          27.4014   -1.7262   -6.8738 C.2       5 UNK         0.5014 
     38 O          28.1725   -1.7969   -7.8318 O.2       5 UNK        -0.5248 
     39 N          27.5424   -0.8593   -5.8597 N.am      6 UNK        -0.4434 
     40 CA         28.6343    0.1019   -5.7265 C.3       6 UNK         0.0363 
     41 CB         28.5033    0.8676   -4.4021 C.3       6 UNK        -0.1936 
     42 C          28.7257    1.0699   -6.9143 C.2       6 UNK         0.5081 
     43 O          29.8023    1.2197   -7.4913 O.2       6 UNK        -0.5248 
     44 N          27.5883    1.6712   -7.2884 N.am      7 UNK        -0.4718 
     45 CA         27.4764    2.6264   -8.3931 C.3       7 UNK         0.0273 
     46 CB         26.0886    3.2852   -8.3543 C.3       7 UNK        -0.1935 
     47 C          27.7379    2.0234   -9.7838 C.2       7 UNK         0.5018 
     48 O          28.1266    2.7676  -10.6839 O.2       7 UNK        -0.5186 
     49 N          27.5353    0.7068   -9.9451 N.am      8 UNK        -0.4240 
     50 CA         27.7131   -0.0047  -11.2152 C.3       8 UNK         0.0235 
     51 CB         27.1232   -1.4202  -11.1106 C.3       8 UNK        -0.2000 
     52 C          29.1757   -0.0603  -11.6888 C.2       8 UNK         0.4941 
     53 O          29.4128   -0.0009  -12.8960 O.2       8 UNK        -0.5273 
     54 N          30.1196   -0.1586  -10.7422 N.am      9 UNK        -0.4262 
     55 CA         31.5643   -0.1698  -11.0051 C.3       9 UNK         0.0264 
     56 CB         32.1620   -1.4685  -10.4426 C.3       9 UNK        -0.1955 
     57 C          32.2833    1.0631  -10.4260 C.2       9 UNK         0.5031 
     58 O          33.5072    1.1431  -10.5413 O.2       9 UNK        -0.5390 
     59 N          31.5275    1.9916   -9.8206 N.am      10 UNK        -0.4204 
     60 CA         31.9778    3.2100   -9.1379 C.3       10 UNK         0.0237 
     61 CB         32.5886    4.2127  -10.1410 C.3       10 UNK        -0.1985 
     62 C          32.8918    2.9206   -7.9291 C.2       10 UNK         0.4970 
     63 O          33.9198    3.5804   -7.7606 O.2       10 UNK        -0.4914 
     64 N          32.4920    1.9460   -7.1024 N.am      11 UNK        -0.4285 
     65 CA         33.1185    1.6494   -5.8066 C.3       11 UNK         0.1007 
     66 C          32.8142    2.7569   -4.7610 C.2       11 UNK         0.5703 
     67 N          33.7549    3.0456   -3.8719 N.am      11 UNK        -0.7361 
     68 O          31.7244    3.3258   -4.7230 O.2       11 UNK        -0.4986 
     69 C69        32.7031    0.2595   -5.2586 C.3       12 UNK        -0.0947 
     70 S70        33.3459   -1.1211   -6.2639 S.3       12 UNK        -0.2240 
     71 C71        31.8371   -2.0687   -6.6745 C.3       12 UNK         0.0194 
     72 H72        26.4349   -3.2993    1.8827 H         1 UNK         0.0906 
     73 H73        27.2489   -4.4847    2.8953 H         1 UNK         0.0906 
     74 H74        28.0498   -2.9646    2.5361 H         1 UNK         0.0906 
     75 H75        28.9227   -4.0721   -0.9009 H         1 UNK         0.3140 
     76 H76        28.7897   -1.7217    0.7364 H         1 UNK         0.1085 
     77 H77        29.1005   -2.0131   -2.3008 H         1 UNK         0.0836 
     78 H78        29.2839   -0.5334   -1.4112 H         1 UNK         0.0836 
     79 H79        32.5498   -3.7339   -1.7504 H         1 UNK         0.0731 
     80 H80        31.0151   -4.3235   -1.1837 H         1 UNK         0.0731 
     81 H81        32.4062   -2.1499   -3.9122 H         1 UNK         0.1312 
     82 H82        29.8814   -3.8722   -6.9280 H         1 UNK         0.1406 
     83 H83        29.5438   -5.1394   -2.8507 H         1 UNK         0.1631 
     84 H84        27.9061   -5.8875   -4.4169 H         1 UNK         0.0717 
     85 H85        29.0199   -6.5556   -5.5831 H         1 UNK         0.0717 
     86 H86        25.4224   -4.2955   -5.6061 H         1 UNK         0.0934 
     87 H87        26.8271   -3.5322   -4.9157 H         1 UNK         0.0934 
     88 H88        26.0147   -3.0418   -7.8260 H         1 UNK         0.0739 
     89 H89        24.7640   -1.8061   -5.4822 H         1 UNK         0.3093 
     90 H90        23.0395    0.6194   -7.3845 H         1 UNK         0.0818 
     91 H91        20.9721   -0.4400   -6.5098 H         1 UNK         0.0819 
     92 H92        21.6093   -1.3785   -7.8488 H         1 UNK         0.0819 
     93 H93        21.8388   -1.9456   -6.2007 H         1 UNK         0.0819 
     94 H94        22.7645   -0.2059   -4.6653 H         1 UNK         0.3041 
     95 H95        25.4546    1.7302   -3.3492 H         1 UNK         0.0784 
     96 H96        23.5409    3.3074   -3.7044 H         1 UNK         0.0793 
     97 H97        22.4145    2.0684   -3.1681 H         1 UNK         0.0793 
     98 H98        23.6113    2.7253   -2.0509 H         1 UNK         0.0793 
     99 H99        23.6910    0.2627   -1.8550 H         1 UNK         0.3024 
    100 H100       24.3064   -1.5680   -0.7986 H         1 UNK         0.1171 
    101 H101       23.1184   -2.9641   -2.5093 H         1 UNK         0.0786 
    102 H102       23.9718   -3.9801   -1.3597 H         1 UNK         0.0786 
    103 H103       24.6369   -3.7208   -2.9718 H         1 UNK         0.0786 
    104 H104       26.5249   -3.3159   -1.4427 H         1 UNK         0.2977 
    105 H105       26.8723   -0.8962   -5.0924 H         1 UNK         0.3127 
    106 H106       29.5528   -0.4796   -5.6893 H         1 UNK         0.0770 
    107 H107       27.6106    1.4923   -4.3835 H         1 UNK         0.0814 
    108 H108       29.3628    1.5209   -4.2445 H         1 UNK         0.0814 
    109 H109       28.4502    0.1860   -3.5546 H         1 UNK         0.0814 
    110 H110       26.7403    1.4998   -6.7506 H         1 UNK         0.2983 
    111 H111       28.2272    3.4035   -8.2337 H         1 UNK         0.0947 
    112 H112       25.9814    4.0244   -9.1493 H         1 UNK         0.0806 
    113 H113       25.9210    3.8008   -7.4085 H         1 UNK         0.0806 
    114 H114       25.2919    2.5504   -8.4796 H         1 UNK         0.0806 
    115 H115       27.2398    0.1592   -9.1476 H         1 UNK         0.3000 
    116 H116       27.1463    0.5381  -11.9750 H         1 UNK         0.0850 
    117 H117       27.1768   -1.9348  -12.0708 H         1 UNK         0.0810 
    118 H118       26.0740   -1.3940  -10.8161 H         1 UNK         0.0810 
    119 H119       27.6604   -2.0322  -10.3861 H         1 UNK         0.0810 
    120 H120       29.8273   -0.2321   -9.7756 H         1 UNK         0.3040 
    121 H121       31.7553   -0.1562  -12.0800 H         1 UNK         0.0766 
    122 H122       33.2179   -1.5601  -10.7004 H         1 UNK         0.0812 
    123 H123       31.6537   -2.3481  -10.8379 H         1 UNK         0.0812 
    124 H124       32.0901   -1.4934   -9.3585 H         1 UNK         0.0812 
    125 H125       30.5352    1.8120   -9.7608 H         1 UNK         0.3205 
    126 H126       31.0787    3.6705   -8.7255 H         1 UNK         0.0754 
    127 H127       32.8060    5.1657   -9.6571 H         1 UNK         0.0769 
    128 H128       31.9028    4.4172  -10.9632 H         1 UNK         0.0769 
    129 H129       33.5226    3.8443  -10.5664 H         1 UNK         0.0769 
    130 H130       31.5864    1.5149   -7.2745 H         1 UNK         0.2981 
    131 H131       34.1992    1.6349   -5.9632 H         1 UNK         0.0541 
    132 H132       34.6479    2.5780   -3.8856 H         1 UNK         0.3459 
    133 H133       33.5700    3.7513   -3.1763 H         1 UNK         0.3459 
    134 H134       31.6199    0.1908   -5.1721 H         1 UNK         0.0612 
    135 H135       33.0938    0.1198   -4.2490 H         1 UNK         0.0612 
    136 H136       31.0922   -1.3938   -7.0966 H         1 UNK         0.0624 
    137 H137       32.1096   -2.7603   -7.4722 H         1 UNK         0.0624 
@<TRIPOS>BOND
     1    1    2 1    
     2    1   72 1    
     3    1   73 1    
     4    1   74 1    
     5    2    3 2    
     6    2    4 am   BACKBONE|DICT|INTERRES
     7    4    5 1    
     8    4   75 1    
     9    5    6 1    
    10    5   35 1    
    11    5   76 1    
    12    6    7 1    
    13    6   77 1    
    14    6   78 1    
    15    7    8 1    
    16    8    9 1    
    17    8   79 1    
    18    8   80 1    
    19    9   10 ar   
    20    9   14 ar   
    21   10   11 ar   
    22   10   81 1    
    23   11   12 ar   
    24   11   71 1    
    25   12   13 ar   
    26   12   82 1    
    27   13   14 ar   
    28   13   15 1    
    29   14   83 1    
    30   15   16 1    
    31   15   84 1    
    32   15   85 1    
    33   16   17 1    
    34   17   18 1    
    35   17   86 1    
    36   17   87 1    
    37   18   19 1    
    38   18   37 1    
    39   18   88 1    
    40   19   20 am   BACKBONE|DICT|INTERRES
    41   19   89 1    
    42   20   21 2    
    43   20   22 1    
    44   22   23 1    
    45   22   24 1    
    46   22   90 1    
    47   23   91 1    
    48   23   92 1    
    49   23   93 1    
    50   24   25 am   BACKBONE|DICT|INTERRES
    51   24   94 1    
    52   25   26 2    
    53   25   27 1    
    54   27   28 1    
    55   27   29 1    
    56   27   95 1    
    57   28   96 1    
    58   28   97 1    
    59   28   98 1    
    60   29   30 am   BACKBONE|DICT|INTERRES
    61   29   99 1    
    62   30   31 2    
    63   30   32 1    
    64   32   33 1    
    65   32   34 1    
    66   32  100 1    
    67   33  101 1    
    68   33  102 1    
    69   33  103 1    
    70   34   35 am   BACKBONE|DICT|INTERRES
    71   34  104 1    
    72   35   36 2    
    73   37   38 2    
    74   37   39 am   BACKBONE|DICT|INTERRES
    75   39   40 1    
    76   39  105 1    
    77   40   41 1    
    78   40   42 1    
    79   40  106 1    
    80   41  107 1    
    81   41  108 1    
    82   41  109 1    
    83   42   43 2    
    84   42   44 am   BACKBONE|DICT|INTERRES
    85   44   45 1    
    86   44  110 1    
    87   45   46 1    
    88   45   47 1    
    89   45  111 1    
    90   46  112 1    
    91   46  113 1    
    92   46  114 1    
    93   47   48 2    
    94   47   49 am   BACKBONE|DICT|INTERRES
    95   49   50 1    
    96   49  115 1    
    97   50   51 1    
    98   50   52 1    
    99   50  116 1    
   100   51  117 1    
   101   51  118 1    
   102   51  119 1    
   103   52   53 2    
   104   52   54 am   BACKBONE|DICT|INTERRES
   105   54   55 1    
   106   54  120 1    
   107   55   56 1    
   108   55   57 1    
   109   55  121 1    
   110   56  122 1    
   111   56  123 1    
   112   56  124 1    
   113   57   58 2    
   114   57   59 am   BACKBONE|DICT|INTERRES
   115   59   60 1    
   116   59  125 1    
   117   60   61 1    
   118   60   62 1    
   119   60  126 1    
   120   61  127 1    
   121   61  128 1    
   122   61  129 1    
   123   62   63 2    
   124   62   64 am   BACKBONE|DICT|INTERRES
   125   64   65 1    
   126   64  130 1    
   127   65   66 1    
   128   65   69 1    
   129   65  131 1    
   130   66   67 am   BACKBONE|DICT|INTERRES
   131   66   68 2    
   132   67  132 1    
   133   67  133 1    
   134   69   70 1    
   135   69  134 1    
   136   69  135 1    
   137   70   71 1    
   138   71  136 1    
   139   71  137 1    
@<TRIPOS>SUBSTRUCTURE
     1 UNK         1 GROUP             0       ****    0 ROOT    
