@<TRIPOS>MOLECULE
3R137
137   139    1
SMALL
USER_CHARGES


@<TRIPOS>ATOM
      1 CA         23.0654   -5.1494   -2.7707 C.3       0 UNK        -0.2020 
      2 C          24.5690   -5.0421   -2.5611 C.2       0 UNK         0.4855 
      3 O          25.3283   -5.6299   -3.3304 O.2       0 UNK        -0.5197 
      4 N          24.9853   -4.3044   -1.5209 N.am      1 UNK        -0.4892 
      5 CA         26.3704   -3.9765   -1.1508 C.3       1 UNK         0.0835 
      6 C6         27.2798   -5.2291   -0.9981 C.3       12 UNK        -0.0855 
      7 S7         28.8029   -4.9357   -0.0269 S.3       12 UNK        -0.2931 
      8 C8         30.0803   -5.7626   -1.0345 C.3       12 UNK         0.0378 
      9 C9         30.3912   -5.0285   -2.3346 C.ar      12 UNK        -0.0802 
     10 C10        31.3496   -4.0073   -2.3656 C.ar      12 UNK        -0.0944 
     11 C11        31.6716   -3.3729   -3.5717 C.ar      12 UNK        -0.0787 
     12 C12        31.0251   -3.7632   -4.7461 C.ar      12 UNK        -0.0862 
     13 C13        30.0411   -4.7528   -4.7215 C.ar      12 UNK        -0.0733 
     14 C14        29.7459   -5.3980   -3.5194 C.ar      12 UNK        -0.0832 
     15 C15        29.2782   -5.1060   -5.9883 C.3       12 UNK         0.0240 
     16 S16        27.7622   -4.1073   -6.1361 S.3       12 UNK        -0.2522 
     17 C17        28.4715   -2.4489   -6.4020 C.3       12 UNK        -0.0967 
     18 CA         27.4252   -1.4157   -6.8615 C.3       5 UNK         0.0660 
     19 N          26.3495   -1.2458   -5.8751 N.am      5 UNK        -0.4015 
     20 C          25.1973   -0.6011   -6.1086 C.2       4 UNK         0.4946 
     21 O          24.9397   -0.0264   -7.1656 O.2       4 UNK        -0.5353 
     22 CA         24.1800   -0.5590   -4.9615 C.3       4 UNK         0.0277 
     23 CB         23.4975   -1.9248   -4.7775 C.3       4 UNK        -0.1981 
     24 N          24.8308   -0.1494   -3.7178 N.am      4 UNK        -0.4209 
     25 C          25.0289    1.1290   -3.3625 C.2       3 UNK         0.4942 
     26 O          24.5902    2.0902   -3.9948 O.2       3 UNK        -0.5208 
     27 CA         25.8658    1.3944   -2.0963 C.3       3 UNK         0.0250 
     28 CB         24.9501    1.5658   -0.8736 C.3       3 UNK        -0.1990 
     29 N          26.8630    0.3591   -1.8113 N.am      3 UNK        -0.4232 
     30 C          27.8935    0.0475   -2.6105 C.2       2 UNK         0.4993 
     31 O          28.1290    0.6154   -3.6735 O.2       2 UNK        -0.5286 
     32 CA         28.7732   -1.1359   -2.1804 C.3       2 UNK         0.0209 
     33 CB         29.8680   -0.6566   -1.2130 C.3       2 UNK        -0.1931 
     34 N          28.0359   -2.2383   -1.5569 N.am      2 UNK        -0.4546 
     35 C          26.9670   -2.8729   -2.0570 C.2       1 UNK         0.5154 
     36 O          26.4337   -2.5605   -3.1265 O.2       1 UNK        -0.5181 
     37 C          28.1015   -0.0902   -7.2833 C.2       5 UNK         0.5014 
     38 O          28.6937   -0.0316   -8.3635 O.2       5 UNK        -0.5248 
     39 N          27.9706    0.9698   -6.4740 N.am      6 UNK        -0.4434 
     40 CA         28.3300    2.3466   -6.8197 C.3       6 UNK         0.0363 
     41 CB         28.1088    3.2598   -5.6044 C.3       6 UNK        -0.1936 
     42 C          27.5796    2.8960   -8.0475 C.2       6 UNK         0.5081 
     43 O          28.1431    3.7269   -8.7581 O.2       6 UNK        -0.5248 
     44 N          26.3655    2.3950   -8.3292 N.am      7 UNK        -0.4718 
     45 CA         25.6096    2.7236   -9.5456 C.3       7 UNK         0.0273 
     46 CB         24.1528    2.2586   -9.3954 C.3       7 UNK        -0.1935 
     47 C          26.2374    2.1313  -10.8222 C.2       7 UNK         0.5018 
     48 O          26.0306    2.6806  -11.9044 O.2       7 UNK        -0.5186 
     49 N          27.0156    1.0502  -10.6704 N.am      8 UNK        -0.4240 
     50 CA         27.8454    0.4502  -11.7176 C.3       8 UNK         0.0235 
     51 CB         27.8306   -1.0796  -11.5446 C.3       8 UNK        -0.2000 
     52 C          29.2886    0.9952  -11.6955 C.2       8 UNK         0.4941 
     53 O          30.1132    0.5245  -12.4798 O.2       8 UNK        -0.5273 
     54 N          29.5739    1.9574  -10.8016 N.am      9 UNK        -0.4262 
     55 CA         30.8646    2.6088  -10.5549 C.3       9 UNK         0.0264 
     56 CB         31.3050    3.4381  -11.7805 C.3       9 UNK        -0.1955 
     57 C          31.9625    1.6502  -10.0515 C.2       9 UNK         0.5031 
     58 O          33.1425    1.8970  -10.3090 O.2       9 UNK        -0.5390 
     59 N          31.5742    0.5842   -9.3334 N.am      10 UNK        -0.4204 
     60 CA         32.5065   -0.4107   -8.7906 C.3       10 UNK         0.0237 
     61 CB         31.7267   -1.6536   -8.3402 C.3       10 UNK        -0.1985 
     62 C          33.3472    0.1288   -7.6209 C.2       10 UNK         0.4970 
     63 O          34.5406   -0.1655   -7.5443 O.2       10 UNK        -0.4914 
     64 N          32.7011    0.8911   -6.7330 N.am      11 UNK        -0.4285 
     65 CA         33.2717    1.4236   -5.4868 C.3       11 UNK         0.1007 
     66 C          32.5326    2.6958   -4.9790 C.2       11 UNK         0.5703 
     67 N          31.8231    3.4258   -5.8332 N.am      11 UNK        -0.7361 
     68 O          32.6188    3.0490   -3.8053 O.2       11 UNK        -0.4986 
     69 C69        33.4787    0.3249   -4.4010 C.3       12 UNK        -0.0947 
     70 S70        31.9840   -0.6657   -4.0592 S.3       12 UNK        -0.2240 
     71 C71        32.7230   -2.2746   -3.6318 C.3       12 UNK         0.0194 
     72 H72        22.7390   -6.1785   -2.6234 H         1 UNK         0.0906 
     73 H73        22.8065   -4.8532   -3.7868 H         1 UNK         0.0906 
     74 H74        22.5088   -4.5139   -2.0823 H         1 UNK         0.0906 
     75 H75        24.2850   -3.8503   -0.9507 H         1 UNK         0.3140 
     76 H76        26.2790   -3.5266   -0.1605 H         1 UNK         0.1085 
     77 H77        27.5228   -5.6423   -1.9737 H         1 UNK         0.0836 
     78 H78        26.7277   -6.0162   -0.4821 H         1 UNK         0.0836 
     79 H79        30.9913   -5.8435   -0.4395 H         1 UNK         0.0731 
     80 H80        29.7681   -6.7876   -1.2415 H         1 UNK         0.0731 
     81 H81        31.8518   -3.7167   -1.4530 H         1 UNK         0.1312 
     82 H82        31.2693   -3.2700   -5.6765 H         1 UNK         0.1406 
     83 H83        29.0050   -6.1852   -3.5131 H         1 UNK         0.1631 
     84 H84        29.0063   -6.1625   -5.9782 H         1 UNK         0.0717 
     85 H85        29.9050   -4.9597   -6.8694 H         1 UNK         0.0717 
     86 H86        28.9584   -2.1111   -5.4858 H         1 UNK         0.0934 
     87 H87        29.2456   -2.5571   -7.1604 H         1 UNK         0.0934 
     88 H88        26.9576   -1.8070   -7.7678 H         1 UNK         0.0739 
     89 H89        26.4761   -1.7165   -4.9837 H         1 UNK         0.3093 
     90 H90        23.4064    0.1671   -5.2215 H         1 UNK         0.0818 
     91 H91        22.9564   -2.2112   -5.6802 H         1 UNK         0.0819 
     92 H92        24.2160   -2.7172   -4.5674 H         1 UNK         0.0819 
     93 H93        22.7760   -1.9012   -3.9608 H         1 UNK         0.0819 
     94 H94        25.2798   -0.8846   -3.1823 H         1 UNK         0.3041 
     95 H95        26.4037    2.3315   -2.2560 H         1 UNK         0.0784 
     96 H96        24.2126    2.3512   -1.0459 H         1 UNK         0.0793 
     97 H97        24.4032    0.6498   -0.6464 H         1 UNK         0.0793 
     98 H98        25.5187    1.8480    0.0127 H         1 UNK         0.0793 
     99 H99        26.7467   -0.1662   -0.9573 H         1 UNK         0.3024 
    100 H100       29.2486   -1.5323   -3.0796 H         1 UNK         0.1171 
    101 H101       29.4528   -0.3330   -0.2580 H         1 UNK         0.0786 
    102 H102       30.4175    0.1884   -1.6303 H         1 UNK         0.0786 
    103 H103       30.5941   -1.4447   -1.0148 H         1 UNK         0.0786 
    104 H104       28.4256   -2.5999   -0.6963 H         1 UNK         0.2977 
    105 H105       27.6178    0.8205   -5.5322 H         1 UNK         0.3127 
    106 H106       29.3935    2.3547   -7.0631 H         1 UNK         0.0770 
    107 H107       28.3343    4.2991   -5.8472 H         1 UNK         0.0814 
    108 H108       27.0769    3.2203   -5.2528 H         1 UNK         0.0814 
    109 H109       28.7578    2.9772   -4.7754 H         1 UNK         0.0814 
    110 H110       25.9642    1.6843   -7.7240 H         1 UNK         0.2983 
    111 H111       25.6080    3.8103   -9.6569 H         1 UNK         0.0947 
    112 H112       24.0775    1.1717   -9.3518 H         1 UNK         0.0806 
    113 H113       23.5505    2.5902  -10.2422 H         1 UNK         0.0806 
    114 H114       23.6951    2.6639   -8.4928 H         1 UNK         0.0806 
    115 H115       27.1561    0.6842   -9.7365 H         1 UNK         0.3000 
    116 H116       27.4272    0.6844  -12.6987 H         1 UNK         0.0850 
    117 H117       26.8134   -1.4709  -11.5614 H         1 UNK         0.0810 
    118 H118       28.2933   -1.3877  -10.6066 H         1 UNK         0.0810 
    119 H119       28.3773   -1.5696  -12.3513 H         1 UNK         0.0810 
    120 H120       28.8194    2.2897  -10.2134 H         1 UNK         0.3040 
    121 H121       30.6917    3.3098   -9.7373 H         1 UNK         0.0766 
    122 H122       31.5672    2.8026  -12.6268 H         1 UNK         0.0812 
    123 H123       32.1801    4.0465  -11.5488 H         1 UNK         0.0812 
    124 H124       30.5169    4.1187  -12.1025 H         1 UNK         0.0812 
    125 H125       30.5839    0.4317   -9.1673 H         1 UNK         0.3205 
    126 H126       33.1886   -0.7076   -9.5904 H         1 UNK         0.0754 
    127 H127       32.4061   -2.4590   -8.0580 H         1 UNK         0.0769 
    128 H128       31.0779   -2.0327   -9.1303 H         1 UNK         0.0769 
    129 H129       31.1117   -1.4285   -7.4701 H         1 UNK         0.0769 
    130 H130       31.7144    1.0575   -6.8587 H         1 UNK         0.2981 
    131 H131       34.2650    1.8008   -5.7359 H         1 UNK         0.0541 
    132 H132       31.3632    4.2543   -5.4911 H         1 UNK         0.3459 
    133 H133       31.8299    3.2264   -6.8188 H         1 UNK         0.3459 
    134 H134       33.8383    0.7536   -3.4643 H         1 UNK         0.0612 
    135 H135       34.2712   -0.3475   -4.7313 H         1 UNK         0.0612 
    136 H136       33.2489   -2.1840   -2.6804 H         1 UNK         0.0624 
    137 H137       33.4694   -2.5447   -4.3800 H         1 UNK         0.0624 
@<TRIPOS>BOND
     1    1    2 1    
     2    1   72 1    
     3    1   73 1    
     4    1   74 1    
     5    2    3 2    
     6    2    4 am   BACKBONE|DICT|INTERRES
     7    4    5 1    
     8    4   75 1    
     9    5    6 1    
    10    5   35 1    
    11    5   76 1    
    12    6    7 1    
    13    6   77 1    
    14    6   78 1    
    15    7    8 1    
    16    8    9 1    
    17    8   79 1    
    18    8   80 1    
    19    9   10 ar   
    20    9   14 ar   
    21   10   11 ar   
    22   10   81 1    
    23   11   12 ar   
    24   11   71 1    
    25   12   13 ar   
    26   12   82 1    
    27   13   14 ar   
    28   13   15 1    
    29   14   83 1    
    30   15   16 1    
    31   15   84 1    
    32   15   85 1    
    33   16   17 1    
    34   17   18 1    
    35   17   86 1    
    36   17   87 1    
    37   18   19 1    
    38   18   37 1    
    39   18   88 1    
    40   19   20 am   BACKBONE|DICT|INTERRES
    41   19   89 1    
    42   20   21 2    
    43   20   22 1    
    44   22   23 1    
    45   22   24 1    
    46   22   90 1    
    47   23   91 1    
    48   23   92 1    
    49   23   93 1    
    50   24   25 am   BACKBONE|DICT|INTERRES
    51   24   94 1    
    52   25   26 2    
    53   25   27 1    
    54   27   28 1    
    55   27   29 1    
    56   27   95 1    
    57   28   96 1    
    58   28   97 1    
    59   28   98 1    
    60   29   30 am   BACKBONE|DICT|INTERRES
    61   29   99 1    
    62   30   31 2    
    63   30   32 1    
    64   32   33 1    
    65   32   34 1    
    66   32  100 1    
    67   33  101 1    
    68   33  102 1    
    69   33  103 1    
    70   34   35 am   BACKBONE|DICT|INTERRES
    71   34  104 1    
    72   35   36 2    
    73   37   38 2    
    74   37   39 am   BACKBONE|DICT|INTERRES
    75   39   40 1    
    76   39  105 1    
    77   40   41 1    
    78   40   42 1    
    79   40  106 1    
    80   41  107 1    
    81   41  108 1    
    82   41  109 1    
    83   42   43 2    
    84   42   44 am   BACKBONE|DICT|INTERRES
    85   44   45 1    
    86   44  110 1    
    87   45   46 1    
    88   45   47 1    
    89   45  111 1    
    90   46  112 1    
    91   46  113 1    
    92   46  114 1    
    93   47   48 2    
    94   47   49 am   BACKBONE|DICT|INTERRES
    95   49   50 1    
    96   49  115 1    
    97   50   51 1    
    98   50   52 1    
    99   50  116 1    
   100   51  117 1    
   101   51  118 1    
   102   51  119 1    
   103   52   53 2    
   104   52   54 am   BACKBONE|DICT|INTERRES
   105   54   55 1    
   106   54  120 1    
   107   55   56 1    
   108   55   57 1    
   109   55  121 1    
   110   56  122 1    
   111   56  123 1    
   112   56  124 1    
   113   57   58 2    
   114   57   59 am   BACKBONE|DICT|INTERRES
   115   59   60 1    
   116   59  125 1    
   117   60   61 1    
   118   60   62 1    
   119   60  126 1    
   120   61  127 1    
   121   61  128 1    
   122   61  129 1    
   123   62   63 2    
   124   62   64 am   BACKBONE|DICT|INTERRES
   125   64   65 1    
   126   64  130 1    
   127   65   66 1    
   128   65   69 1    
   129   65  131 1    
   130   66   67 am   BACKBONE|DICT|INTERRES
   131   66   68 2    
   132   67  132 1    
   133   67  133 1    
   134   69   70 1    
   135   69  134 1    
   136   69  135 1    
   137   70   71 1    
   138   71  136 1    
   139   71  137 1    
@<TRIPOS>SUBSTRUCTURE
     1 UNK         1 GROUP             0       ****    0 ROOT    
