@<TRIPOS>MOLECULE
3R137
137   139    1
SMALL
USER_CHARGES


@<TRIPOS>ATOM
      1 CA         25.6561   -1.7104   -1.3179 C.3       0 UNK        -0.2020 
      2 C          26.5490   -2.4760   -2.2808 C.2       0 UNK         0.4855 
      3 O          26.6545   -2.1059   -3.4503 O.2       0 UNK        -0.5197 
      4 N          27.1882   -3.5531   -1.8082 N.am      1 UNK        -0.4892 
      5 CA         28.0388   -4.4237   -2.6236 C.3       1 UNK         0.0835 
      6 C6         28.8085   -5.4763   -1.7879 C.3       12 UNK        -0.0855 
      7 S7         29.7599   -4.7784   -0.3983 S.3       12 UNK        -0.2931 
      8 C8         31.2019   -4.0474   -1.2450 C.3       12 UNK         0.0378 
      9 C9         30.9791   -2.5963   -1.6624 C.ar      12 UNK        -0.0802 
     10 C10        31.3087   -2.1715   -2.9554 C.ar      12 UNK        -0.0944 
     11 C11        31.1840   -0.8239   -3.3113 C.ar      12 UNK        -0.0787 
     12 C12        30.7345    0.0988   -2.3652 C.ar      12 UNK        -0.0862 
     13 C13        30.3470   -0.3183   -1.0915 C.ar      12 UNK        -0.0733 
     14 C14        30.4870   -1.6637   -0.7410 C.ar      12 UNK        -0.0832 
     15 C15        29.7744    0.6815   -0.0981 C.3       12 UNK         0.0240 
     16 S16        28.0528    1.1220   -0.5124 S.3       12 UNK        -0.2522 
     17 C17        28.2665    2.5428   -1.6407 C.3       12 UNK        -0.0967 
     18 CA         27.9630    2.2277   -3.1326 C.3       5 UNK         0.0660 
     19 N          26.5887    1.7479   -3.3271 N.am      5 UNK        -0.4015 
     20 C          26.1258    1.1005   -4.4054 C.2       4 UNK         0.4946 
     21 O          26.7746    0.9165   -5.4408 O.2       4 UNK        -0.5353 
     22 CA         24.6889    0.5775   -4.3285 C.3       4 UNK         0.0277 
     23 CB         23.6776    1.6644   -4.7310 C.3       4 UNK        -0.1981 
     24 N          24.5887   -0.5555   -5.2411 N.am      4 UNK        -0.4209 
     25 C          23.8399   -1.6478   -5.0612 C.2       3 UNK         0.4942 
     26 O          23.0687   -1.8108   -4.1149 O.2       3 UNK        -0.5208 
     27 CA         23.9825   -2.7479   -6.1180 C.3       3 UNK         0.0250 
     28 CB         23.9210   -2.1857   -7.5548 C.3       3 UNK        -0.1990 
     29 N          25.2164   -3.5069   -5.8969 N.am      3 UNK        -0.4232 
     30 C          25.4625   -4.7106   -6.4383 C.2       2 UNK         0.4993 
     31 O          24.6640   -5.2986   -7.1695 O.2       2 UNK        -0.5286 
     32 CA         26.8094   -5.3986   -6.1390 C.3       2 UNK         0.0209 
     33 CB         27.7364   -5.3608   -7.3655 C.3       2 UNK        -0.1931 
     34 N          27.5219   -4.8500   -4.9844 N.am      2 UNK        -0.4546 
     35 C          27.1969   -5.1156   -3.7140 C.2       1 UNK         0.5154 
     36 O          26.2713   -5.8618   -3.3851 O.2       1 UNK        -0.5181 
     37 C          28.3130    3.4287   -4.0437 C.2       5 UNK         0.5014 
     38 O          28.5523    4.5325   -3.5491 O.2       5 UNK        -0.5248 
     39 N          28.3343    3.1945   -5.3571 N.am      6 UNK        -0.4434 
     40 CA         28.6322    4.1491   -6.4181 C.3       6 UNK         0.0363 
     41 CB         27.4637    5.1507   -6.5745 C.3       6 UNK        -0.1936 
     42 C          28.9114    3.3640   -7.7102 C.2       6 UNK         0.5081 
     43 O          29.1470    2.1514   -7.6652 O.2       6 UNK        -0.5248 
     44 N          28.8222    4.0538   -8.8555 N.am      7 UNK        -0.4718 
     45 CA         28.9520    3.5049  -10.2124 C.3       7 UNK         0.0273 
     46 CB         28.9548    4.6667  -11.2197 C.3       7 UNK        -0.1935 
     47 C          27.8850    2.4568  -10.5949 C.2       7 UNK         0.5018 
     48 O          28.0295    1.8084  -11.6308 O.2       7 UNK        -0.5186 
     49 N          26.8503    2.2916   -9.7581 N.am      8 UNK        -0.4240 
     50 CA         25.9001    1.1812   -9.8113 C.3       8 UNK         0.0235 
     51 CB         24.7618    1.4312   -8.8077 C.3       8 UNK        -0.2000 
     52 C          26.5848   -0.1693   -9.5347 C.2       8 UNK         0.4941 
     53 O          26.3404   -1.1270  -10.2688 O.2       8 UNK        -0.5273 
     54 N          27.4330   -0.2151   -8.4955 N.am      9 UNK        -0.4262 
     55 CA         28.2658   -1.3734   -8.1691 C.3       9 UNK         0.0264 
     56 CB         28.4932   -1.4486   -6.6511 C.3       9 UNK        -0.1955 
     57 C          29.6052   -1.3377   -8.9214 C.2       9 UNK         0.5031 
     58 O          30.0466   -2.3843   -9.3965 O.2       9 UNK        -0.5390 
     59 N          30.2113   -0.1425   -9.0254 N.am      10 UNK        -0.4204 
     60 CA         31.4500    0.1638   -9.7568 C.3       10 UNK         0.0237 
     61 CB         31.2195    0.0643  -11.2803 C.3       10 UNK        -0.1985 
     62 C          32.6711   -0.6559   -9.2891 C.2       10 UNK         0.4970 
     63 O          33.4036   -1.2041  -10.1159 O.2       10 UNK        -0.4914 
     64 N          32.8696   -0.7206   -7.9675 N.am      11 UNK        -0.4285 
     65 CA         34.0480   -1.3223   -7.3232 C.3       11 UNK         0.1007 
     66 C          35.3715   -0.5567   -7.6162 C.2       11 UNK         0.5703 
     67 N          36.5105   -1.2274   -7.5043 N.am      11 UNK        -0.7361 
     68 O          35.3805    0.6364   -7.9166 O.2       11 UNK        -0.4986 
     69 C69        33.8222   -1.5383   -5.8011 C.3       12 UNK        -0.0947 
     70 S70        33.2905   -0.0297   -4.9171 S.3       12 UNK        -0.2240 
     71 C71        31.5130   -0.3492   -4.7170 C.3       12 UNK         0.0194 
     72 H72        25.8046   -2.0268   -0.2858 H         1 UNK         0.0906 
     73 H73        25.8675   -0.6446   -1.3779 H         1 UNK         0.0906 
     74 H74        24.6093   -1.8642   -1.5790 H         1 UNK         0.0906 
     75 H75        27.0768   -3.8294   -0.8433 H         1 UNK         0.3140 
     76 H76        28.7750   -3.7816   -3.1113 H         1 UNK         0.1085 
     77 H77        29.4875   -6.0474   -2.4242 H         1 UNK         0.0836 
     78 H78        28.1142   -6.2054   -1.3646 H         1 UNK         0.0836 
     79 H79        31.4796   -4.6661   -2.0997 H         1 UNK         0.0731 
     80 H80        32.0516   -4.0756   -0.5616 H         1 UNK         0.0731 
     81 H81        31.6799   -2.8831   -3.6798 H         1 UNK         0.1312 
     82 H82        30.6670    1.1440   -2.6284 H         1 UNK         0.1406 
     83 H83        30.2150   -1.9885    0.2542 H         1 UNK         0.1631 
     84 H84        30.4023    1.5722   -0.0523 H         1 UNK         0.0717 
     85 H85        29.7850    0.2579    0.9073 H         1 UNK         0.0717 
     86 H86        27.6135    3.3432   -1.2871 H         1 UNK         0.0934 
     87 H87        29.2815    2.9291   -1.5320 H         1 UNK         0.0934 
     88 H88        28.6131    1.4110   -3.4452 H         1 UNK         0.0739 
     89 H89        25.9717    1.8789   -2.5394 H         1 UNK         0.3093 
     90 H90        24.4904    0.2459   -3.3076 H         1 UNK         0.0818 
     91 H91        23.7305    2.5195   -4.0562 H         1 UNK         0.0819 
     92 H92        23.8605    2.0331   -5.7407 H         1 UNK         0.0819 
     93 H93        22.6560    1.2859   -4.6941 H         1 UNK         0.0819 
     94 H94        25.2706   -0.5306   -5.9886 H         1 UNK         0.3041 
     95 H95        23.1348   -3.4235   -5.9827 H         1 UNK         0.0784 
     96 H96        23.0755   -1.5075   -7.6779 H         1 UNK         0.0793 
     97 H97        24.8267   -1.6394   -7.8113 H         1 UNK         0.0793 
     98 H98        23.8001   -2.9811   -8.2900 H         1 UNK         0.0793 
     99 H99        25.8756   -3.1071   -5.2355 H         1 UNK         0.3024 
    100 H100       26.5787   -6.4469   -5.9334 H         1 UNK         0.1171 
    101 H101       28.0778   -4.3515   -7.5871 H         1 UNK         0.0786 
    102 H102       28.6182   -5.9833   -7.2122 H         1 UNK         0.0786 
    103 H103       27.2290   -5.7371   -8.2550 H         1 UNK         0.0786 
    104 H104       28.2805   -4.2124   -5.1766 H         1 UNK         0.2977 
    105 H105       28.0899    2.2583   -5.6791 H         1 UNK         0.3127 
    106 H106       29.5441    4.6892   -6.1568 H         1 UNK         0.0770 
    107 H107       26.5484    4.6531   -6.8976 H         1 UNK         0.0814 
    108 H108       27.6928    5.9311   -7.3004 H         1 UNK         0.0814 
    109 H109       27.2447    5.6617   -5.6371 H         1 UNK         0.0814 
    110 H110       28.6190    5.0417   -8.7974 H         1 UNK         0.2983 
    111 H111       29.9187    3.0006  -10.2708 H         1 UNK         0.0947 
    112 H112       29.0936    4.3022  -12.2387 H         1 UNK         0.0806 
    113 H113       29.7657    5.3668  -11.0177 H         1 UNK         0.0806 
    114 H114       28.0161    5.2217  -11.1979 H         1 UNK         0.0806 
    115 H115       26.8048    2.8929   -8.9498 H         1 UNK         0.3000 
    116 H116       25.4752    1.1461  -10.8169 H         1 UNK         0.0850 
    117 H117       25.1285    1.4773   -7.7816 H         1 UNK         0.0810 
    118 H118       24.0196    0.6335   -8.8546 H         1 UNK         0.0810 
    119 H119       24.2424    2.3656   -9.0207 H         1 UNK         0.0810 
    120 H120       27.5920    0.6233   -7.9494 H         1 UNK         0.3040 
    121 H121       27.7407   -2.2804   -8.4731 H         1 UNK         0.0766 
    122 H122       28.9324   -0.5292   -6.2637 H         1 UNK         0.0812 
    123 H123       27.5567   -1.6140   -6.1194 H         1 UNK         0.0812 
    124 H124       29.1621   -2.2698   -6.3922 H         1 UNK         0.0812 
    125 H125       29.7795    0.6494   -8.5506 H         1 UNK         0.3205 
    126 H126       31.6852    1.2048   -9.5304 H         1 UNK         0.0754 
    127 H127       32.1034    0.3846  -11.8333 H         1 UNK         0.0769 
    128 H128       30.3959    0.6991  -11.6013 H         1 UNK         0.0769 
    129 H129       30.9937   -0.9568  -11.5894 H         1 UNK         0.0769 
    130 H130       32.2504   -0.2105   -7.3572 H         1 UNK         0.2981 
    131 H131       34.1661   -2.3120   -7.7692 H         1 UNK         0.0541 
    132 H132       37.3795   -0.7475   -7.6795 H         1 UNK         0.3459 
    133 H133       36.5201   -2.2032   -7.2512 H         1 UNK         0.3459 
    134 H134       34.7304   -1.9103   -5.3235 H         1 UNK         0.0612 
    135 H135       33.0838   -2.3268   -5.6527 H         1 UNK         0.0612 
    136 H136       30.9690    0.5705   -4.9394 H         1 UNK         0.0624 
    137 H137       31.1699   -1.0813   -5.4479 H         1 UNK         0.0624 
@<TRIPOS>BOND
     1    1    2 1    
     2    1   72 1    
     3    1   73 1    
     4    1   74 1    
     5    2    3 2    
     6    2    4 am   BACKBONE|DICT|INTERRES
     7    4    5 1    
     8    4   75 1    
     9    5    6 1    
    10    5   35 1    
    11    5   76 1    
    12    6    7 1    
    13    6   77 1    
    14    6   78 1    
    15    7    8 1    
    16    8    9 1    
    17    8   79 1    
    18    8   80 1    
    19    9   10 ar   
    20    9   14 ar   
    21   10   11 ar   
    22   10   81 1    
    23   11   12 ar   
    24   11   71 1    
    25   12   13 ar   
    26   12   82 1    
    27   13   14 ar   
    28   13   15 1    
    29   14   83 1    
    30   15   16 1    
    31   15   84 1    
    32   15   85 1    
    33   16   17 1    
    34   17   18 1    
    35   17   86 1    
    36   17   87 1    
    37   18   19 1    
    38   18   37 1    
    39   18   88 1    
    40   19   20 am   BACKBONE|DICT|INTERRES
    41   19   89 1    
    42   20   21 2    
    43   20   22 1    
    44   22   23 1    
    45   22   24 1    
    46   22   90 1    
    47   23   91 1    
    48   23   92 1    
    49   23   93 1    
    50   24   25 am   BACKBONE|DICT|INTERRES
    51   24   94 1    
    52   25   26 2    
    53   25   27 1    
    54   27   28 1    
    55   27   29 1    
    56   27   95 1    
    57   28   96 1    
    58   28   97 1    
    59   28   98 1    
    60   29   30 am   BACKBONE|DICT|INTERRES
    61   29   99 1    
    62   30   31 2    
    63   30   32 1    
    64   32   33 1    
    65   32   34 1    
    66   32  100 1    
    67   33  101 1    
    68   33  102 1    
    69   33  103 1    
    70   34   35 am   BACKBONE|DICT|INTERRES
    71   34  104 1    
    72   35   36 2    
    73   37   38 2    
    74   37   39 am   BACKBONE|DICT|INTERRES
    75   39   40 1    
    76   39  105 1    
    77   40   41 1    
    78   40   42 1    
    79   40  106 1    
    80   41  107 1    
    81   41  108 1    
    82   41  109 1    
    83   42   43 2    
    84   42   44 am   BACKBONE|DICT|INTERRES
    85   44   45 1    
    86   44  110 1    
    87   45   46 1    
    88   45   47 1    
    89   45  111 1    
    90   46  112 1    
    91   46  113 1    
    92   46  114 1    
    93   47   48 2    
    94   47   49 am   BACKBONE|DICT|INTERRES
    95   49   50 1    
    96   49  115 1    
    97   50   51 1    
    98   50   52 1    
    99   50  116 1    
   100   51  117 1    
   101   51  118 1    
   102   51  119 1    
   103   52   53 2    
   104   52   54 am   BACKBONE|DICT|INTERRES
   105   54   55 1    
   106   54  120 1    
   107   55   56 1    
   108   55   57 1    
   109   55  121 1    
   110   56  122 1    
   111   56  123 1    
   112   56  124 1    
   113   57   58 2    
   114   57   59 am   BACKBONE|DICT|INTERRES
   115   59   60 1    
   116   59  125 1    
   117   60   61 1    
   118   60   62 1    
   119   60  126 1    
   120   61  127 1    
   121   61  128 1    
   122   61  129 1    
   123   62   63 2    
   124   62   64 am   BACKBONE|DICT|INTERRES
   125   64   65 1    
   126   64  130 1    
   127   65   66 1    
   128   65   69 1    
   129   65  131 1    
   130   66   67 am   BACKBONE|DICT|INTERRES
   131   66   68 2    
   132   67  132 1    
   133   67  133 1    
   134   69   70 1    
   135   69  134 1    
   136   69  135 1    
   137   70   71 1    
   138   71  136 1    
   139   71  137 1    
@<TRIPOS>SUBSTRUCTURE
     1 UNK         1 GROUP             0       ****    0 ROOT    
