@<TRIPOS>MOLECULE
3R137
137   139    1
SMALL
USER_CHARGES


@<TRIPOS>ATOM
      1 CA         30.0488   -6.8233   -7.3220 C.3       0 UNK        -0.2020 
      2 C          29.5393   -6.4079   -5.9500 C.2       0 UNK         0.4855 
      3 O          30.1872   -6.6941   -4.9434 O.2       0 UNK        -0.5197 
      4 N          28.3854   -5.7369   -5.9019 N.am      1 UNK        -0.4892 
      5 CA         27.7039   -5.3131   -4.6813 C.3       1 UNK         0.0835 
      6 C6         28.2349   -3.9527   -4.1564 C.3       12 UNK        -0.0855 
      7 S7         28.1890   -3.8436   -2.3382 S.3       12 UNK        -0.2931 
      8 C8         29.9421   -3.5510   -1.9271 C.3       12 UNK         0.0378 
      9 C9         30.3526   -2.0931   -2.1108 C.ar      12 UNK        -0.0802 
     10 C10        31.2961   -1.7317   -3.0795 C.ar      12 UNK        -0.0944 
     11 C11        31.7041   -0.3991   -3.2129 C.ar      12 UNK        -0.0787 
     12 C12        31.1637    0.5744   -2.3657 C.ar      12 UNK        -0.0862 
     13 C13        30.2328    0.2244   -1.3829 C.ar      12 UNK        -0.0733 
     14 C14        29.8272   -1.1089   -1.2665 C.ar      12 UNK        -0.0832 
     15 C15        29.7148    1.2666   -0.3997 C.3       12 UNK         0.0240 
     16 S16        28.0509    1.8726   -0.8237 S.3       12 UNK        -0.2522 
     17 C17        28.3997    3.0890   -2.1411 C.3       12 UNK        -0.0967 
     18 CA         27.8751    2.6263   -3.5217 C.3       5 UNK         0.0660 
     19 N          26.4331    2.3258   -3.4799 N.am      5 UNK        -0.4015 
     20 C          25.6666    1.8379   -4.4654 C.2       4 UNK         0.4946 
     21 O          26.0236    1.7293   -5.6405 O.2       4 UNK        -0.5353 
     22 CA         24.2295    1.4548   -4.0770 C.3       4 UNK         0.0277 
     23 CB         23.2948    2.6626   -4.2538 C.3       4 UNK        -0.1981 
     24 N          23.7160    0.3331   -4.8694 N.am      4 UNK        -0.4209 
     25 C          24.2263   -0.9060   -4.8698 C.2       3 UNK         0.4942 
     26 O          25.1930   -1.2546   -4.1873 O.2       3 UNK        -0.5208 
     27 CA         23.5421   -1.9166   -5.8084 C.3       3 UNK         0.0250 
     28 CB         24.0144   -1.7259   -7.2604 C.3       3 UNK        -0.1990 
     29 N          23.8138   -3.2947   -5.3988 N.am      3 UNK        -0.4232 
     30 C          23.3061   -3.8952   -4.3163 C.2       2 UNK         0.4993 
     31 O          22.4182   -3.4040   -3.6174 O.2       2 UNK        -0.5286 
     32 CA         23.8924   -5.2666   -3.9285 C.3       2 UNK         0.0209 
     33 CB         23.2621   -6.4008   -4.7616 C.3       2 UNK        -0.1931 
     34 N          25.3651   -5.3294   -3.9428 N.am      2 UNK        -0.4546 
     35 C          26.1983   -5.2583   -4.9903 C.2       1 UNK         0.5154 
     36 O          25.8262   -5.1199   -6.1603 O.2       1 UNK        -0.5181 
     37 C          28.3282    3.6042   -4.6296 C.2       5 UNK         0.5014 
     38 O          29.5232    3.6608   -4.9192 O.2       5 UNK        -0.5248 
     39 N          27.3916    4.3471   -5.2359 N.am      6 UNK        -0.4434 
     40 CA         27.6237    5.1703   -6.4248 C.3       6 UNK         0.0363 
     41 CB         26.4102    6.0875   -6.6464 C.3       6 UNK        -0.1936 
     42 C          27.9073    4.3401   -7.6933 C.2       6 UNK         0.5081 
     43 O          28.5642    4.8505   -8.6016 O.2       6 UNK        -0.5248 
     44 N          27.4164    3.0939   -7.7358 N.am      7 UNK        -0.4718 
     45 CA         27.6307    2.1325   -8.8149 C.3       7 UNK         0.0273 
     46 CB         26.2799    1.7696   -9.4595 C.3       7 UNK        -0.1935 
     47 C          28.3518    0.9021   -8.2518 C.2       7 UNK         0.5018 
     48 O          29.5280    0.7065   -8.5627 O.2       7 UNK        -0.5186 
     49 N          27.6370    0.1337   -7.4147 N.am      8 UNK        -0.4240 
     50 CA         28.0691   -1.0401   -6.6485 C.3       8 UNK         0.0235 
     51 CB         28.6130   -0.5788   -5.2838 C.3       8 UNK        -0.2000 
     52 C          28.9767   -2.0137   -7.4257 C.2       8 UNK         0.4941 
     53 O          28.5577   -2.5205   -8.4671 O.2       8 UNK        -0.5273 
     54 N          30.1987   -2.2567   -6.9348 N.am      9 UNK        -0.4262 
     55 CA         31.1849   -3.1706   -7.5200 C.3       9 UNK         0.0264 
     56 CB         32.0971   -3.6951   -6.3947 C.3       9 UNK        -0.1955 
     57 C          31.9862   -2.5180   -8.6651 C.2       9 UNK         0.5031 
     58 O          33.2089   -2.6650   -8.7133 O.2       9 UNK        -0.5390 
     59 N          31.2891   -1.7820   -9.5446 N.am      10 UNK        -0.4204 
     60 CA         31.8245   -0.9184  -10.6079 C.3       10 UNK         0.0237 
     61 CB         32.4807   -1.7577  -11.7249 C.3       10 UNK        -0.1985 
     62 C          32.7490    0.1912  -10.0605 C.2       10 UNK         0.4970 
     63 O          33.7286    0.5607  -10.7111 O.2       10 UNK        -0.4914 
     64 N          32.4136    0.6862   -8.8656 N.am      11 UNK        -0.4285 
     65 CA         33.1300    1.7216   -8.1116 C.3       11 UNK         0.1007 
     66 C          32.4042    3.0974   -8.1224 C.2       11 UNK         0.5703 
     67 N          31.1606    3.1807   -8.5795 N.am      11 UNK        -0.7361 
     68 O          32.9926    4.1064   -7.7408 O.2       11 UNK        -0.4986 
     69 C69        33.4574    1.2333   -6.6730 C.3       12 UNK        -0.0947 
     70 S70        31.9897    0.6910   -5.7331 S.3       12 UNK        -0.2240 
     71 C71        32.7554   -0.0080   -4.2432 C.3       12 UNK         0.0194 
     72 H72        29.4608   -6.3804   -8.1259 H         1 UNK         0.0906 
     73 H73        31.0853   -6.5127   -7.4493 H         1 UNK         0.0906 
     74 H74        30.0047   -7.9072   -7.4248 H         1 UNK         0.0906 
     75 H75        27.8431   -5.5654   -6.7415 H         1 UNK         0.3140 
     76 H76        27.8570   -6.0906   -3.9287 H         1 UNK         0.1085 
     77 H77        27.6609   -3.1195   -4.5632 H         1 UNK         0.0836 
     78 H78        29.2623   -3.7936   -4.4857 H         1 UNK         0.0836 
     79 H79        30.5738   -4.2180   -2.5164 H         1 UNK         0.0731 
     80 H80        30.1033   -3.8289   -0.8846 H         1 UNK         0.0731 
     81 H81        31.7239   -2.4900   -3.7193 H         1 UNK         0.1312 
     82 H82        31.4869    1.6021   -2.4603 H         1 UNK         0.1406 
     83 H83        29.1114   -1.3864   -0.5043 H         1 UNK         0.1631 
     84 H84        30.4070    2.1064   -0.3220 H         1 UNK         0.0717 
     85 H85        29.6743    0.8247    0.5970 H         1 UNK         0.0717 
     86 H86        27.9424    4.0391   -1.8581 H         1 UNK         0.0934 
     87 H87        29.4749    3.2750   -2.1806 H         1 UNK         0.0934 
     88 H88        28.3779    1.6869   -3.7424 H         1 UNK         0.0739 
     89 H89        26.0262    2.3896   -2.5577 H         1 UNK         0.3093 
     90 H90        24.2202    1.1492   -3.0285 H         1 UNK         0.0818 
     91 H91        23.6240    3.5078   -3.6478 H         1 UNK         0.0819 
     92 H92        23.2627    2.9989   -5.2913 H         1 UNK         0.0819 
     93 H93        22.2762    2.4257   -3.9459 H         1 UNK         0.0819 
     94 H94        22.9455    0.5389   -5.4881 H         1 UNK         0.3041 
     95 H95        22.4635   -1.7509   -5.7646 H         1 UNK         0.0784 
     96 H96        23.8573   -0.7008   -7.5986 H         1 UNK         0.0793 
     97 H97        25.0747   -1.9491   -7.3757 H         1 UNK         0.0793 
     98 H98        23.4646   -2.3767   -7.9406 H         1 UNK         0.0793 
     99 H99        24.5549   -3.7879   -5.8897 H         1 UNK         0.3024 
    100 H100       23.6050   -5.4348   -2.8889 H         1 UNK         0.1171 
    101 H101       23.4764   -6.2989   -5.8257 H         1 UNK         0.0786 
    102 H102       23.6229   -7.3773   -4.4387 H         1 UNK         0.0786 
    103 H103       22.1768   -6.4043   -4.6517 H         1 UNK         0.0786 
    104 H104       25.7898   -5.3756   -3.0255 H         1 UNK         0.2977 
    105 H105       26.4328    4.2321   -4.9425 H         1 UNK         0.3127 
    106 H106       28.4991    5.7967   -6.2396 H         1 UNK         0.0770 
    107 H107       26.5647    6.7348   -7.5109 H         1 UNK         0.0814 
    108 H108       26.2379    6.7346   -5.7861 H         1 UNK         0.0814 
    109 H109       25.4991    5.5154   -6.8270 H         1 UNK         0.0814 
    110 H110       26.9243    2.7361   -6.9187 H         1 UNK         0.2983 
    111 H111       28.2713    2.5576   -9.5907 H         1 UNK         0.0947 
    112 H112       26.4013    0.9852  -10.2079 H         1 UNK         0.0806 
    113 H113       25.8460    2.6329   -9.9641 H         1 UNK         0.0806 
    114 H114       25.5521    1.4180   -8.7273 H         1 UNK         0.0806 
    115 H115       26.7122    0.4701   -7.1738 H         1 UNK         0.3000 
    116 H116       27.1673   -1.6161   -6.4420 H         1 UNK         0.0850 
    117 H117       29.2707    0.2819   -5.3805 H         1 UNK         0.0810 
    118 H118       29.1506   -1.3551   -4.7460 H         1 UNK         0.0810 
    119 H119       27.7863   -0.2910   -4.6364 H         1 UNK         0.0810 
    120 H120       30.4993   -1.7262   -6.1291 H         1 UNK         0.3040 
    121 H121       30.6587   -4.0240   -7.9507 H         1 UNK         0.0766 
    122 H122       31.5217   -4.1493   -5.5887 H         1 UNK         0.0812 
    123 H123       32.7052   -2.8971   -5.9674 H         1 UNK         0.0812 
    124 H124       32.7802   -4.4586   -6.7691 H         1 UNK         0.0812 
    125 H125       30.2853   -1.7329   -9.3999 H         1 UNK         0.3205 
    126 H126       30.9649   -0.4049  -11.0412 H         1 UNK         0.0754 
    127 H127       32.7568   -1.1312  -12.5740 H         1 UNK         0.0769 
    128 H128       31.8002   -2.5236  -12.0969 H         1 UNK         0.0769 
    129 H129       33.3880   -2.2540  -11.3793 H         1 UNK         0.0769 
    130 H130       31.5386    0.3831   -8.4521 H         1 UNK         0.2981 
    131 H131       34.0875    1.9069   -8.6012 H         1 UNK         0.0541 
    132 H132       30.6581    2.3344   -8.8148 H         1 UNK         0.3459 
    133 H133       30.6766    4.0670   -8.5860 H         1 UNK         0.3459 
    134 H134       33.9734    2.0107   -6.1067 H         1 UNK         0.0612 
    135 H135       34.1503    0.3923   -6.7288 H         1 UNK         0.0612 
    136 H136       33.4380    0.7254   -3.8112 H         1 UNK         0.0624 
    137 H137       33.3623   -0.8710   -4.5206 H         1 UNK         0.0624 
@<TRIPOS>BOND
     1    1    2 1    
     2    1   72 1    
     3    1   73 1    
     4    1   74 1    
     5    2    3 2    
     6    2    4 am   BACKBONE|DICT|INTERRES
     7    4    5 1    
     8    4   75 1    
     9    5    6 1    
    10    5   35 1    
    11    5   76 1    
    12    6    7 1    
    13    6   77 1    
    14    6   78 1    
    15    7    8 1    
    16    8    9 1    
    17    8   79 1    
    18    8   80 1    
    19    9   10 ar   
    20    9   14 ar   
    21   10   11 ar   
    22   10   81 1    
    23   11   12 ar   
    24   11   71 1    
    25   12   13 ar   
    26   12   82 1    
    27   13   14 ar   
    28   13   15 1    
    29   14   83 1    
    30   15   16 1    
    31   15   84 1    
    32   15   85 1    
    33   16   17 1    
    34   17   18 1    
    35   17   86 1    
    36   17   87 1    
    37   18   19 1    
    38   18   37 1    
    39   18   88 1    
    40   19   20 am   BACKBONE|DICT|INTERRES
    41   19   89 1    
    42   20   21 2    
    43   20   22 1    
    44   22   23 1    
    45   22   24 1    
    46   22   90 1    
    47   23   91 1    
    48   23   92 1    
    49   23   93 1    
    50   24   25 am   BACKBONE|DICT|INTERRES
    51   24   94 1    
    52   25   26 2    
    53   25   27 1    
    54   27   28 1    
    55   27   29 1    
    56   27   95 1    
    57   28   96 1    
    58   28   97 1    
    59   28   98 1    
    60   29   30 am   BACKBONE|DICT|INTERRES
    61   29   99 1    
    62   30   31 2    
    63   30   32 1    
    64   32   33 1    
    65   32   34 1    
    66   32  100 1    
    67   33  101 1    
    68   33  102 1    
    69   33  103 1    
    70   34   35 am   BACKBONE|DICT|INTERRES
    71   34  104 1    
    72   35   36 2    
    73   37   38 2    
    74   37   39 am   BACKBONE|DICT|INTERRES
    75   39   40 1    
    76   39  105 1    
    77   40   41 1    
    78   40   42 1    
    79   40  106 1    
    80   41  107 1    
    81   41  108 1    
    82   41  109 1    
    83   42   43 2    
    84   42   44 am   BACKBONE|DICT|INTERRES
    85   44   45 1    
    86   44  110 1    
    87   45   46 1    
    88   45   47 1    
    89   45  111 1    
    90   46  112 1    
    91   46  113 1    
    92   46  114 1    
    93   47   48 2    
    94   47   49 am   BACKBONE|DICT|INTERRES
    95   49   50 1    
    96   49  115 1    
    97   50   51 1    
    98   50   52 1    
    99   50  116 1    
   100   51  117 1    
   101   51  118 1    
   102   51  119 1    
   103   52   53 2    
   104   52   54 am   BACKBONE|DICT|INTERRES
   105   54   55 1    
   106   54  120 1    
   107   55   56 1    
   108   55   57 1    
   109   55  121 1    
   110   56  122 1    
   111   56  123 1    
   112   56  124 1    
   113   57   58 2    
   114   57   59 am   BACKBONE|DICT|INTERRES
   115   59   60 1    
   116   59  125 1    
   117   60   61 1    
   118   60   62 1    
   119   60  126 1    
   120   61  127 1    
   121   61  128 1    
   122   61  129 1    
   123   62   63 2    
   124   62   64 am   BACKBONE|DICT|INTERRES
   125   64   65 1    
   126   64  130 1    
   127   65   66 1    
   128   65   69 1    
   129   65  131 1    
   130   66   67 am   BACKBONE|DICT|INTERRES
   131   66   68 2    
   132   67  132 1    
   133   67  133 1    
   134   69   70 1    
   135   69  134 1    
   136   69  135 1    
   137   70   71 1    
   138   71  136 1    
   139   71  137 1    
@<TRIPOS>SUBSTRUCTURE
     1 UNK         1 GROUP             0       ****    0 ROOT    
