@<TRIPOS>MOLECULE
3R137
137   139    1
SMALL
USER_CHARGES


@<TRIPOS>ATOM
      1 CA         30.2055   -0.6425   -2.0279 C.3       0 UNK        -0.2020 
      2 C          29.3194   -1.5552   -1.1976 C.2       0 UNK         0.4855 
      3 O          29.0086   -1.2249   -0.0534 O.2       0 UNK        -0.5197 
      4 N          28.9244   -2.7005   -1.7704 N.am      1 UNK        -0.4892 
      5 CA         28.1046   -3.7599   -1.1638 C.3       1 UNK         0.0835 
      6 C6         28.8517   -4.5180   -0.0271 C.3       12 UNK        -0.0855 
      7 S7         29.8212   -5.9380   -0.6565 S.3       12 UNK        -0.2931 
      8 C8         31.3864   -5.1926   -1.2542 C.3       12 UNK         0.0378 
      9 C9         31.3246   -4.5333   -2.6367 C.ar      12 UNK        -0.0802 
     10 C10        32.3182   -3.6140   -2.9934 C.ar      12 UNK        -0.0944 
     11 C11        32.2765   -2.9499   -4.2249 C.ar      12 UNK        -0.0787 
     12 C12        31.2024   -3.1782   -5.0899 C.ar      12 UNK        -0.0862 
     13 C13        30.2089   -4.1033   -4.7560 C.ar      12 UNK        -0.0733 
     14 C14        30.3043   -4.8117   -3.5562 C.ar      12 UNK        -0.0832 
     15 C15        29.0240   -4.3370   -5.6804 C.3       12 UNK         0.0240 
     16 S16        27.4701   -3.7499   -4.9243 S.3       12 UNK        -0.2522 
     17 C17        26.3703   -3.7350   -6.3873 C.3       12 UNK        -0.0967 
     18 CA         26.1416   -2.3667   -7.0996 C.3       5 UNK         0.0660 
     19 N          24.9116   -1.6895   -6.6792 N.am      5 UNK        -0.4015 
     20 C          24.2839   -0.7669   -7.4262 C.2       4 UNK         0.4946 
     21 O          24.6650   -0.4152   -8.5443 O.2       4 UNK        -0.5353 
     22 CA         23.0365   -0.1054   -6.8178 C.3       4 UNK         0.0277 
     23 CB         21.8197   -1.0399   -6.9158 C.3       4 UNK        -0.1981 
     24 N          23.2312    0.3101   -5.4275 N.am      4 UNK        -0.4209 
     25 C          24.0882    1.2637   -5.0362 C.2       3 UNK         0.4942 
     26 O          24.7956    1.9109   -5.8080 O.2       3 UNK        -0.5208 
     27 CA         24.2051    1.5130   -3.5216 C.3       3 UNK         0.0250 
     28 CB         23.1268    2.5048   -3.0564 C.3       3 UNK        -0.1990 
     29 N          24.1527    0.3028   -2.6890 N.am      3 UNK        -0.4232 
     30 C          24.9472   -0.7660   -2.8347 C.2       2 UNK         0.4993 
     31 O          25.7423   -0.9090   -3.7689 O.2       2 UNK        -0.5286 
     32 CA         24.8270   -1.8738   -1.7828 C.3       2 UNK         0.0209 
     33 CB         23.6530   -2.8159   -2.0991 C.3       2 UNK        -0.1931 
     34 N          26.0776   -2.6169   -1.8238 N.am      2 UNK        -0.4546 
     35 C          26.7019   -3.2207   -0.8089 C.2       1 UNK         0.5154 
     36 O          26.2330   -3.3285    0.3261 O.2       1 UNK        -0.5181 
     37 C          27.3405   -1.3999   -7.0560 C.2       5 UNK         0.5014 
     38 O          28.1697   -1.4353   -7.9638 O.2       5 UNK        -0.5248 
     39 N          27.3919   -0.5379   -6.0286 N.am      6 UNK        -0.4434 
     40 CA         28.4161    0.4883   -5.8478 C.3       6 UNK         0.0363 
     41 CB         28.2009    1.2128   -4.5111 C.3       6 UNK        -0.1936 
     42 C          28.4500    1.4917   -7.0074 C.2       6 UNK         0.5081 
     43 O          29.5353    1.8015   -7.4965 O.2       6 UNK        -0.5248 
     44 N          27.2692    1.9430   -7.4533 N.am      7 UNK        -0.4718 
     45 CA         27.1036    2.8066   -8.6230 C.3       7 UNK         0.0273 
     46 CB         25.6485    3.2945   -8.7031 C.3       7 UNK        -0.1935 
     47 C          27.5192    2.1205   -9.9346 C.2       7 UNK         0.5018 
     48 O          28.1849    2.7521  -10.7552 O.2       7 UNK        -0.5186 
     49 N          27.1393    0.8448  -10.1015 N.am      8 UNK        -0.4240 
     50 CA         27.4756    0.0294  -11.2722 C.3       8 UNK         0.0235 
     51 CB         26.6422   -1.2622  -11.2608 C.3       8 UNK        -0.2000 
     52 C          28.9772   -0.2902  -11.3721 C.2       8 UNK         0.4941 
     53 O          29.5502   -0.1727  -12.4558 O.2       8 UNK        -0.5273 
     54 N          29.5865   -0.6812  -10.2451 N.am      9 UNK        -0.4262 
     55 CA         31.0072   -1.0230  -10.1374 C.3       9 UNK         0.0264 
     56 CB         31.2147   -1.8774   -8.8757 C.3       9 UNK        -0.1955 
     57 C          31.9392    0.2002  -10.0927 C.2       9 UNK         0.5031 
     58 O          33.1415    0.0321  -10.3020 O.2       9 UNK        -0.5390 
     59 N          31.3862    1.3830   -9.7827 N.am      10 UNK        -0.4204 
     60 CA         32.0830    2.6344   -9.4597 C.3       10 UNK         0.0237 
     61 CB         32.8769    3.1740  -10.6690 C.3       10 UNK        -0.1985 
     62 C          32.9283    2.4915   -8.1776 C.2       10 UNK         0.4970 
     63 O          34.0889    2.9050   -8.1445 O.2       10 UNK        -0.4914 
     64 N          32.3185    1.8882   -7.1488 N.am      11 UNK        -0.4285 
     65 CA         32.9099    1.6645   -5.8218 C.3       11 UNK         0.1007 
     66 C          32.9975    2.9524   -4.9493 C.2       11 UNK         0.5703 
     67 N          32.2279    3.9969   -5.2357 N.am      11 UNK        -0.7361 
     68 O          33.7882    3.0148   -4.0113 O.2       11 UNK        -0.4986 
     69 C69        32.1839    0.5059   -5.0812 C.3       12 UNK        -0.0947 
     70 S70        33.2614   -0.3636   -3.8922 S.3       12 UNK        -0.2240 
     71 C71        33.4140   -2.0197   -4.6304 C.3       12 UNK         0.0194 
     72 H72        31.2284   -0.6827   -1.6551 H         1 UNK         0.0906 
     73 H73        30.2141   -0.9332   -3.0784 H         1 UNK         0.0906 
     74 H74        29.8610    0.3888   -1.9610 H         1 UNK         0.0906 
     75 H75        29.2456   -2.9069   -2.7077 H         1 UNK         0.3140 
     76 H76        27.8994   -4.4818   -1.9551 H         1 UNK         0.1085 
     77 H77        29.4939   -3.8539    0.5526 H         1 UNK         0.0836 
     78 H78        28.1480   -4.9408    0.6916 H         1 UNK         0.0836 
     79 H79        31.7296   -4.4675   -0.5146 H         1 UNK         0.0731 
     80 H80        32.1432   -5.9772   -1.2900 H         1 UNK         0.0731 
     81 H81        33.1331   -3.4140   -2.3107 H         1 UNK         0.1312 
     82 H82        31.1490   -2.6488   -6.0299 H         1 UNK         0.1406 
     83 H83        29.5422   -5.5421   -3.3249 H         1 UNK         0.1631 
     84 H84        29.1810   -3.8270   -6.6324 H         1 UNK         0.0717 
     85 H85        28.9384   -5.4006   -5.9073 H         1 UNK         0.0717 
     86 H86        26.7778   -4.4415   -7.1125 H         1 UNK         0.0934 
     87 H87        25.4141   -4.1708   -6.0934 H         1 UNK         0.0934 
     88 H88        25.9994   -2.6088   -8.1554 H         1 UNK         0.0739 
     89 H89        24.5917   -1.8668   -5.7379 H         1 UNK         0.3093 
     90 H90        22.8232    0.7909   -7.4047 H         1 UNK         0.0818 
     91 H91        20.9102   -0.5428   -6.5777 H         1 UNK         0.0819 
     92 H92        21.6508   -1.3516   -7.9476 H         1 UNK         0.0819 
     93 H93        21.9498   -1.9438   -6.3196 H         1 UNK         0.0819 
     94 H94        22.6930   -0.1696   -4.7209 H         1 UNK         0.3041 
     95 H95        25.1795    1.9734   -3.3486 H         1 UNK         0.0784 
     96 H96        23.1571    3.4206   -3.6489 H         1 UNK         0.0793 
     97 H97        22.1237    2.0874   -3.1527 H         1 UNK         0.0793 
     98 H98        23.2733    2.7920   -2.0150 H         1 UNK         0.0793 
     99 H99        23.5136    0.3267   -1.9071 H         1 UNK         0.3024 
    100 H100       24.6985   -1.4208   -0.7970 H         1 UNK         0.1171 
    101 H101       23.5854   -3.6211   -1.3673 H         1 UNK         0.0786 
    102 H102       22.7025   -2.2815   -2.0803 H         1 UNK         0.0786 
    103 H103       23.7559   -3.2704   -3.0856 H         1 UNK         0.0786 
    104 H104       26.5670   -2.5160   -2.7069 H         1 UNK         0.2977 
    105 H105       26.6961   -0.6223   -5.2883 H         1 UNK         0.3127 
    106 H106       29.3777   -0.0254   -5.8153 H         1 UNK         0.0770 
    107 H107       27.2828    1.7998   -4.5160 H         1 UNK         0.0814 
    108 H108       29.0231    1.8974   -4.2999 H         1 UNK         0.0814 
    109 H109       28.1356    0.5084   -3.6830 H         1 UNK         0.0814 
    110 H110       26.4229    1.6802   -6.9553 H         1 UNK         0.2983 
    111 H111       27.7491    3.6773   -8.4881 H         1 UNK         0.0947 
    112 H112       25.4989    3.9427   -9.5675 H         1 UNK         0.0806 
    113 H113       25.3748    3.8673   -7.8168 H         1 UNK         0.0806 
    114 H114       24.9480    2.4627   -8.7904 H         1 UNK         0.0806 
    115 H115       26.5695    0.4088   -9.3854 H         1 UNK         0.3000 
    116 H116       27.2006    0.5994  -12.1624 H         1 UNK         0.0850 
    117 H117       26.8471   -1.8666  -12.1454 H         1 UNK         0.0810 
    118 H118       25.5738   -1.0447  -11.2564 H         1 UNK         0.0810 
    119 H119       26.8605   -1.8773  -10.3877 H         1 UNK         0.0810 
    120 H120       29.0247   -0.8137   -9.4031 H         1 UNK         0.3040 
    121 H121       31.2877   -1.6206  -11.0074 H         1 UNK         0.0766 
    122 H122       30.6035   -2.7798   -8.9005 H         1 UNK         0.0812 
    123 H123       30.9534   -1.3202   -7.9755 H         1 UNK         0.0812 
    124 H124       32.2549   -2.1909   -8.7773 H         1 UNK         0.0812 
    125 H125       30.3930    1.3870   -9.5850 H         1 UNK         0.3205 
    126 H126       31.3031    3.3624   -9.2303 H         1 UNK         0.0754 
    127 H127       33.2770    4.1665  -10.4587 H         1 UNK         0.0769 
    128 H128       32.2426    3.2603  -11.5513 H         1 UNK         0.0769 
    129 H129       33.7213    2.5332  -10.9239 H         1 UNK         0.0769 
    130 H130       31.3306    1.6653   -7.2504 H         1 UNK         0.2981 
    131 H131       33.9396    1.3478   -5.9995 H         1 UNK         0.0541 
    132 H132       31.5772    3.9584   -6.0034 H         1 UNK         0.3459 
    133 H133       32.2978    4.8296   -4.6727 H         1 UNK         0.3459 
    134 H134       31.3017    0.8705   -4.5535 H         1 UNK         0.0612 
    135 H135       31.8153   -0.2263   -5.8001 H         1 UNK         0.0612 
    136 H136       34.3604   -2.4533   -4.3042 H         1 UNK         0.0624 
    137 H137       33.4829   -1.9379   -5.7164 H         1 UNK         0.0624 
@<TRIPOS>BOND
     1    1    2 1    
     2    1   72 1    
     3    1   73 1    
     4    1   74 1    
     5    2    3 2    
     6    2    4 am   BACKBONE|DICT|INTERRES
     7    4    5 1    
     8    4   75 1    
     9    5    6 1    
    10    5   35 1    
    11    5   76 1    
    12    6    7 1    
    13    6   77 1    
    14    6   78 1    
    15    7    8 1    
    16    8    9 1    
    17    8   79 1    
    18    8   80 1    
    19    9   10 ar   
    20    9   14 ar   
    21   10   11 ar   
    22   10   81 1    
    23   11   12 ar   
    24   11   71 1    
    25   12   13 ar   
    26   12   82 1    
    27   13   14 ar   
    28   13   15 1    
    29   14   83 1    
    30   15   16 1    
    31   15   84 1    
    32   15   85 1    
    33   16   17 1    
    34   17   18 1    
    35   17   86 1    
    36   17   87 1    
    37   18   19 1    
    38   18   37 1    
    39   18   88 1    
    40   19   20 am   BACKBONE|DICT|INTERRES
    41   19   89 1    
    42   20   21 2    
    43   20   22 1    
    44   22   23 1    
    45   22   24 1    
    46   22   90 1    
    47   23   91 1    
    48   23   92 1    
    49   23   93 1    
    50   24   25 am   BACKBONE|DICT|INTERRES
    51   24   94 1    
    52   25   26 2    
    53   25   27 1    
    54   27   28 1    
    55   27   29 1    
    56   27   95 1    
    57   28   96 1    
    58   28   97 1    
    59   28   98 1    
    60   29   30 am   BACKBONE|DICT|INTERRES
    61   29   99 1    
    62   30   31 2    
    63   30   32 1    
    64   32   33 1    
    65   32   34 1    
    66   32  100 1    
    67   33  101 1    
    68   33  102 1    
    69   33  103 1    
    70   34   35 am   BACKBONE|DICT|INTERRES
    71   34  104 1    
    72   35   36 2    
    73   37   38 2    
    74   37   39 am   BACKBONE|DICT|INTERRES
    75   39   40 1    
    76   39  105 1    
    77   40   41 1    
    78   40   42 1    
    79   40  106 1    
    80   41  107 1    
    81   41  108 1    
    82   41  109 1    
    83   42   43 2    
    84   42   44 am   BACKBONE|DICT|INTERRES
    85   44   45 1    
    86   44  110 1    
    87   45   46 1    
    88   45   47 1    
    89   45  111 1    
    90   46  112 1    
    91   46  113 1    
    92   46  114 1    
    93   47   48 2    
    94   47   49 am   BACKBONE|DICT|INTERRES
    95   49   50 1    
    96   49  115 1    
    97   50   51 1    
    98   50   52 1    
    99   50  116 1    
   100   51  117 1    
   101   51  118 1    
   102   51  119 1    
   103   52   53 2    
   104   52   54 am   BACKBONE|DICT|INTERRES
   105   54   55 1    
   106   54  120 1    
   107   55   56 1    
   108   55   57 1    
   109   55  121 1    
   110   56  122 1    
   111   56  123 1    
   112   56  124 1    
   113   57   58 2    
   114   57   59 am   BACKBONE|DICT|INTERRES
   115   59   60 1    
   116   59  125 1    
   117   60   61 1    
   118   60   62 1    
   119   60  126 1    
   120   61  127 1    
   121   61  128 1    
   122   61  129 1    
   123   62   63 2    
   124   62   64 am   BACKBONE|DICT|INTERRES
   125   64   65 1    
   126   64  130 1    
   127   65   66 1    
   128   65   69 1    
   129   65  131 1    
   130   66   67 am   BACKBONE|DICT|INTERRES
   131   66   68 2    
   132   67  132 1    
   133   67  133 1    
   134   69   70 1    
   135   69  134 1    
   136   69  135 1    
   137   70   71 1    
   138   71  136 1    
   139   71  137 1    
@<TRIPOS>SUBSTRUCTURE
     1 UNK         1 GROUP             0       ****    0 ROOT    
