@<TRIPOS>MOLECULE
3R137
137   139    1
SMALL
USER_CHARGES


@<TRIPOS>ATOM
      1 CA         30.8625    1.5295   -0.3442 C.3       0 UNK        -0.2020 
      2 C          30.0376    0.9542   -1.4851 C.2       0 UNK         0.4855 
      3 O          29.7906    1.6499   -2.4679 O.2       0 UNK        -0.5197 
      4 N          29.6086   -0.3087   -1.3573 N.am      1 UNK        -0.4892 
      5 CA         28.8594   -1.0706   -2.3708 C.3       1 UNK         0.0835 
      6 C6         28.7423   -2.5701   -1.9904 C.3       12 UNK        -0.0855 
      7 S7         30.3574   -3.3116   -1.5552 S.3       12 UNK        -0.2931 
      8 C8         30.3483   -4.8870   -2.4698 C.3       12 UNK         0.0378 
      9 C9         30.4393   -4.6976   -3.9782 C.ar      12 UNK        -0.0802 
     10 C10        31.5566   -4.0815   -4.5512 C.ar      12 UNK        -0.0944 
     11 C11        31.6569   -3.9233   -5.9377 C.ar      12 UNK        -0.0787 
     12 C12        30.6232   -4.4034   -6.7519 C.ar      12 UNK        -0.0862 
     13 C13        29.4967   -5.0143   -6.1927 C.ar      12 UNK        -0.0733 
     14 C14        29.4164   -5.1675   -4.8054 C.ar      12 UNK        -0.0832 
     15 C15        28.3657   -5.4993   -7.0933 C.3       12 UNK         0.0240 
     16 S16        26.7398   -4.8399   -6.5953 S.3       12 UNK        -0.2522 
     17 C17        27.0533   -3.0402   -6.5838 C.3       12 UNK        -0.0967 
     18 CA         25.9779   -2.2319   -7.3495 C.3       5 UNK         0.0660 
     19 N          24.6375   -2.5235   -6.8449 N.am      5 UNK        -0.4015 
     20 C          23.4764   -2.2905   -7.4687 C.2       4 UNK         0.4946 
     21 O          23.3877   -1.8160   -8.6012 O.2       4 UNK        -0.5353 
     22 CA         22.1957   -2.6111   -6.6676 C.3       4 UNK         0.0277 
     23 CB         21.6269   -3.9757   -7.0887 C.3       4 UNK        -0.1981 
     24 N          22.3947   -2.5957   -5.2088 N.am      4 UNK        -0.4209 
     25 C          22.8021   -1.5227   -4.5148 C.2       3 UNK         0.4942 
     26 O          22.9689   -0.4191   -5.0370 O.2       3 UNK        -0.5208 
     27 CA         23.1475   -1.7105   -3.0282 C.3       3 UNK         0.0250 
     28 CB         23.5031   -3.1623   -2.6462 C.3       3 UNK        -0.1990 
     29 N          24.2853   -0.8444   -2.7269 N.am      3 UNK        -0.4232 
     30 C          24.3810    0.0158   -1.7118 C.2       2 UNK         0.4993 
     31 O          23.5558    0.0949   -0.7993 O.2       2 UNK        -0.5286 
     32 CA         25.6141    0.9418   -1.7307 C.3       2 UNK         0.0209 
     33 CB         25.5894    1.9861   -0.5986 C.3       2 UNK        -0.1931 
     34 N          26.8812    0.2094   -1.6632 N.am      2 UNK        -0.4546 
     35 C          27.4626   -0.4750   -2.6600 C.2       1 UNK         0.5154 
     36 O          26.9436   -0.6359   -3.7662 O.2       1 UNK        -0.5181 
     37 C          26.3395   -0.7300   -7.3160 C.2       5 UNK         0.5014 
     38 O          27.4119   -0.3880   -7.8142 O.2       5 UNK        -0.5248 
     39 N          25.4914    0.1456   -6.7462 N.am      6 UNK        -0.4434 
     40 CA         25.7580    1.5770   -6.5207 C.3       6 UNK         0.0363 
     41 CB         24.5675    2.2138   -5.7866 C.3       6 UNK        -0.1936 
     42 C          26.1192    2.4108   -7.7674 C.2       6 UNK         0.5081 
     43 O          26.6770    3.4971   -7.6140 O.2       6 UNK        -0.5248 
     44 N          25.8301    1.8967   -8.9712 N.am      7 UNK        -0.4718 
     45 CA         26.3017    2.4507  -10.2445 C.3       7 UNK         0.0273 
     46 CB         25.5878    1.7362  -11.4030 C.3       7 UNK        -0.1935 
     47 C          27.8326    2.3602  -10.4143 C.2       7 UNK         0.5018 
     48 O          28.4160    3.2335  -11.0578 O.2       7 UNK        -0.5186 
     49 N          28.4481    1.3224   -9.8306 N.am      8 UNK        -0.4240 
     50 CA         29.8983    1.1350   -9.7484 C.3       8 UNK         0.0235 
     51 CB         30.2403   -0.3235  -10.0900 C.3       8 UNK        -0.2000 
     52 C          30.4248    1.4965   -8.3495 C.2       8 UNK         0.4941 
     53 O          31.5438    2.0021   -8.2439 O.2       8 UNK        -0.5273 
     54 N          29.6119    1.2494   -7.3097 N.am      9 UNK        -0.4262 
     55 CA         29.8536    1.5388   -5.8939 C.3       9 UNK         0.0264 
     56 CB         29.8435    3.0651   -5.6459 C.3       9 UNK        -0.1955 
     57 C          31.1143    0.8184   -5.3854 C.2       9 UNK         0.5031 
     58 O          31.0884   -0.4033   -5.2450 O.2       9 UNK        -0.5390 
     59 N          32.1942    1.5726   -5.1423 N.am      10 UNK        -0.4204 
     60 CA         33.5059    1.0530   -4.7492 C.3       10 UNK         0.0237 
     61 CB         34.3497    2.2083   -4.1850 C.3       10 UNK        -0.1985 
     62 C          34.2583    0.3340   -5.8876 C.2       10 UNK         0.4970 
     63 O          35.2366   -0.3567   -5.6003 O.2       10 UNK        -0.4914 
     64 N          33.8099    0.5100   -7.1397 N.am      11 UNK        -0.4285 
     65 CA         34.3606   -0.0988   -8.3636 C.3       11 UNK         0.1007 
     66 C          35.7623    0.4399   -8.7836 C.2       11 UNK         0.5703 
     67 N          36.2275    1.5634   -8.2495 N.am      11 UNK        -0.7361 
     68 O          36.4295   -0.1475   -9.6324 O.2       11 UNK        -0.4986 
     69 C69        34.2883   -1.6552   -8.3735 C.3       12 UNK        -0.0947 
     70 S70        32.6135   -2.3021   -8.0443 S.3       12 UNK        -0.2240 
     71 C71        32.9069   -3.2653   -6.5221 C.3       12 UNK         0.0194 
     72 H72        31.8422    1.8361   -0.7099 H         1 UNK         0.0906 
     73 H73        31.0107    0.8072    0.4583 H         1 UNK         0.0906 
     74 H74        30.3655    2.4047    0.0734 H         1 UNK         0.0906 
     75 H75        29.8714   -0.8395   -0.5383 H         1 UNK         0.3140 
     76 H76        29.4235   -1.0066   -3.3033 H         1 UNK         0.1085 
     77 H77        28.0740   -2.7017   -1.1371 H         1 UNK         0.0836 
     78 H78        28.2961   -3.1298   -2.8149 H         1 UNK         0.0836 
     79 H79        29.4554   -5.4512   -2.1957 H         1 UNK         0.0731 
     80 H80        31.1992   -5.4855   -2.1417 H         1 UNK         0.0731 
     81 H81        32.3505   -3.7225   -3.9104 H         1 UNK         0.1312 
     82 H82        30.6907   -4.2984   -7.8255 H         1 UNK         0.1406 
     83 H83        28.5489   -5.6472   -4.3724 H         1 UNK         0.1631 
     84 H84        28.3305   -6.5891   -7.0647 H         1 UNK         0.0717 
     85 H85        28.5490   -5.2221   -8.1326 H         1 UNK         0.0717 
     86 H86        27.1171   -2.7162   -5.5429 H         1 UNK         0.0934 
     87 H87        28.0377   -2.8461   -7.0150 H         1 UNK         0.0934 
     88 H88        26.0102   -2.5355   -8.3980 H         1 UNK         0.0739 
     89 H89        24.6028   -2.9479   -5.9308 H         1 UNK         0.3093 
     90 H90        21.4606   -1.8410   -6.9110 H         1 UNK         0.0818 
     91 H91        21.4434   -4.0064   -8.1638 H         1 UNK         0.0819 
     92 H92        22.3125   -4.7906   -6.8524 H         1 UNK         0.0819 
     93 H93        20.6767   -4.1803   -6.5949 H         1 UNK         0.0819 
     94 H94        22.2679   -3.4710   -4.7206 H         1 UNK         0.3041 
     95 H95        22.2715   -1.3962   -2.4572 H         1 UNK         0.0784 
     96 H96        22.6489   -3.8299   -2.7640 H         1 UNK         0.0793 
     97 H97        24.3241   -3.5536   -3.2488 H         1 UNK         0.0793 
     98 H98        23.8067   -3.2251   -1.6008 H         1 UNK         0.0793 
     99 H99        25.0291   -0.8236   -3.4196 H         1 UNK         0.3024 
    100 H100       25.5875    1.4853   -2.6777 H         1 UNK         0.1171 
    101 H101       26.4306    2.6754   -0.6767 H         1 UNK         0.0786 
    102 H102       24.6786    2.5852   -0.6386 H         1 UNK         0.0786 
    103 H103       25.6292    1.5171    0.3854 H         1 UNK         0.0786 
    104 H104       27.3843    0.2661   -0.7897 H         1 UNK         0.2977 
    105 H105       24.6236   -0.2035   -6.3547 H         1 UNK         0.3127 
    106 H106       26.6228    1.6308   -5.8565 H         1 UNK         0.0770 
    107 H107       23.6418    2.1062   -6.3532 H         1 UNK         0.0814 
    108 H108       24.7283    3.2800   -5.6209 H         1 UNK         0.0814 
    109 H109       24.4170    1.7607   -4.8078 H         1 UNK         0.0814 
    110 H110       25.3536    1.0067   -9.0049 H         1 UNK         0.2983 
    111 H111       26.0309    3.5086  -10.2731 H         1 UNK         0.0947 
    112 H112       25.9021    2.1439  -12.3649 H         1 UNK         0.0806 
    113 H113       24.5064    1.8585  -11.3392 H         1 UNK         0.0806 
    114 H114       25.8058    0.6674  -11.4152 H         1 UNK         0.0806 
    115 H115       27.8859    0.6731   -9.2867 H         1 UNK         0.3000 
    116 H116       30.4025    1.7805  -10.4707 H         1 UNK         0.0850 
    117 H117       31.3199   -0.4767  -10.0920 H         1 UNK         0.0810 
    118 H118       29.8736   -0.5959  -11.0796 H         1 UNK         0.0810 
    119 H119       29.8115   -1.0212   -9.3688 H         1 UNK         0.0810 
    120 H120       28.7627    0.7191   -7.4969 H         1 UNK         0.3040 
    121 H121       29.0172    1.1090   -5.3400 H         1 UNK         0.0766 
    122 H122       30.6023    3.5902   -6.2266 H         1 UNK         0.0812 
    123 H123       30.0094    3.2955   -4.5929 H         1 UNK         0.0812 
    124 H124       28.8774    3.4926   -5.9135 H         1 UNK         0.0812 
    125 H125       32.1237    2.5669   -5.3022 H         1 UNK         0.3205 
    126 H126       33.3536    0.3209   -3.9531 H         1 UNK         0.0754 
    127 H127       35.3243    1.8525   -3.8476 H         1 UNK         0.0769 
    128 H128       33.8628    2.6722   -3.3268 H         1 UNK         0.0769 
    129 H129       34.5263    2.9831   -4.9321 H         1 UNK         0.0769 
    130 H130       33.0006    1.1044   -7.2933 H         1 UNK         0.2981 
    131 H131       33.6992    0.2467   -9.1586 H         1 UNK         0.0541 
    132 H132       37.1294    1.9100   -8.5357 H         1 UNK         0.3459 
    133 H133       35.6857    2.0647   -7.5647 H         1 UNK         0.3459 
    134 H134       34.9960   -2.0759   -7.6578 H         1 UNK         0.0612 
    135 H135       34.5880   -2.0405   -9.3494 H         1 UNK         0.0612 
    136 H136       33.6439   -4.0416   -6.7302 H         1 UNK         0.0624 
    137 H137       33.3506   -2.5982   -5.7816 H         1 UNK         0.0624 
@<TRIPOS>BOND
     1    1    2 1    
     2    1   72 1    
     3    1   73 1    
     4    1   74 1    
     5    2    3 2    
     6    2    4 am   BACKBONE|DICT|INTERRES
     7    4    5 1    
     8    4   75 1    
     9    5    6 1    
    10    5   35 1    
    11    5   76 1    
    12    6    7 1    
    13    6   77 1    
    14    6   78 1    
    15    7    8 1    
    16    8    9 1    
    17    8   79 1    
    18    8   80 1    
    19    9   10 ar   
    20    9   14 ar   
    21   10   11 ar   
    22   10   81 1    
    23   11   12 ar   
    24   11   71 1    
    25   12   13 ar   
    26   12   82 1    
    27   13   14 ar   
    28   13   15 1    
    29   14   83 1    
    30   15   16 1    
    31   15   84 1    
    32   15   85 1    
    33   16   17 1    
    34   17   18 1    
    35   17   86 1    
    36   17   87 1    
    37   18   19 1    
    38   18   37 1    
    39   18   88 1    
    40   19   20 am   BACKBONE|DICT|INTERRES
    41   19   89 1    
    42   20   21 2    
    43   20   22 1    
    44   22   23 1    
    45   22   24 1    
    46   22   90 1    
    47   23   91 1    
    48   23   92 1    
    49   23   93 1    
    50   24   25 am   BACKBONE|DICT|INTERRES
    51   24   94 1    
    52   25   26 2    
    53   25   27 1    
    54   27   28 1    
    55   27   29 1    
    56   27   95 1    
    57   28   96 1    
    58   28   97 1    
    59   28   98 1    
    60   29   30 am   BACKBONE|DICT|INTERRES
    61   29   99 1    
    62   30   31 2    
    63   30   32 1    
    64   32   33 1    
    65   32   34 1    
    66   32  100 1    
    67   33  101 1    
    68   33  102 1    
    69   33  103 1    
    70   34   35 am   BACKBONE|DICT|INTERRES
    71   34  104 1    
    72   35   36 2    
    73   37   38 2    
    74   37   39 am   BACKBONE|DICT|INTERRES
    75   39   40 1    
    76   39  105 1    
    77   40   41 1    
    78   40   42 1    
    79   40  106 1    
    80   41  107 1    
    81   41  108 1    
    82   41  109 1    
    83   42   43 2    
    84   42   44 am   BACKBONE|DICT|INTERRES
    85   44   45 1    
    86   44  110 1    
    87   45   46 1    
    88   45   47 1    
    89   45  111 1    
    90   46  112 1    
    91   46  113 1    
    92   46  114 1    
    93   47   48 2    
    94   47   49 am   BACKBONE|DICT|INTERRES
    95   49   50 1    
    96   49  115 1    
    97   50   51 1    
    98   50   52 1    
    99   50  116 1    
   100   51  117 1    
   101   51  118 1    
   102   51  119 1    
   103   52   53 2    
   104   52   54 am   BACKBONE|DICT|INTERRES
   105   54   55 1    
   106   54  120 1    
   107   55   56 1    
   108   55   57 1    
   109   55  121 1    
   110   56  122 1    
   111   56  123 1    
   112   56  124 1    
   113   57   58 2    
   114   57   59 am   BACKBONE|DICT|INTERRES
   115   59   60 1    
   116   59  125 1    
   117   60   61 1    
   118   60   62 1    
   119   60  126 1    
   120   61  127 1    
   121   61  128 1    
   122   61  129 1    
   123   62   63 2    
   124   62   64 am   BACKBONE|DICT|INTERRES
   125   64   65 1    
   126   64  130 1    
   127   65   66 1    
   128   65   69 1    
   129   65  131 1    
   130   66   67 am   BACKBONE|DICT|INTERRES
   131   66   68 2    
   132   67  132 1    
   133   67  133 1    
   134   69   70 1    
   135   69  134 1    
   136   69  135 1    
   137   70   71 1    
   138   71  136 1    
   139   71  137 1    
@<TRIPOS>SUBSTRUCTURE
     1 UNK         1 GROUP             0       ****    0 ROOT    
