@<TRIPOS>MOLECULE
3R137
137   139    1
SMALL
USER_CHARGES


@<TRIPOS>ATOM
      1 CA         26.1639   -6.8759   -3.2078 C.3       0 UNK        -0.2020 
      2 C          26.3280   -5.3875   -2.9461 C.2       0 UNK         0.4855 
      3 O          26.2487   -4.5954   -3.8847 O.2       0 UNK        -0.5197 
      4 N          26.5350   -5.0042   -1.6777 N.am      1 UNK        -0.4892 
      5 CA         26.7913   -3.6376   -1.1918 C.3       1 UNK         0.0835 
      6 C6         28.2149   -3.1305   -1.5196 C.3       12 UNK        -0.0855 
      7 S7         29.5615   -4.1681   -0.8604 S.3       12 UNK        -0.2931 
      8 C8         30.8689   -3.9080   -2.1174 C.3       12 UNK         0.0378 
      9 C9         31.1333   -2.4468   -2.4950 C.ar      12 UNK        -0.0802 
     10 C10        31.5559   -2.1454   -3.7935 C.ar      12 UNK        -0.0944 
     11 C11        31.7781   -0.8220   -4.1858 C.ar      12 UNK        -0.0787 
     12 C12        31.5616    0.2134   -3.2732 C.ar      12 UNK        -0.0862 
     13 C13        31.1202   -0.0682   -1.9777 C.ar      12 UNK        -0.0733 
     14 C14        30.9508   -1.3987   -1.5841 C.ar      12 UNK        -0.0832 
     15 C15        30.7846    1.0583   -1.0074 C.3       12 UNK         0.0240 
     16 S16        29.4343    2.1432   -1.5974 S.3       12 UNK        -0.2522 
     17 C17        28.1614    0.9779   -2.2095 C.3       12 UNK        -0.0967 
     18 CA         28.0752    0.9930   -3.7600 C.3       5 UNK         0.0660 
     19 N          27.7760   -0.3266   -4.3327 N.am      5 UNK        -0.4015 
     20 C          28.0945   -0.6529   -5.5962 C.2       4 UNK         0.4946 
     21 O          28.6658    0.1143   -6.3710 O.2       4 UNK        -0.5353 
     22 CA         27.6725   -2.0323   -6.1204 C.3       4 UNK         0.0277 
     23 CB         28.7203   -3.1059   -5.7938 C.3       4 UNK        -0.1981 
     24 N          26.3479   -2.4625   -5.6721 N.am      4 UNK        -0.4209 
     25 C          25.2032   -1.8859   -6.0638 C.2       3 UNK         0.4942 
     26 O          25.1546   -0.8412   -6.7117 O.2       3 UNK        -0.5208 
     27 CA         23.8981   -2.5890   -5.6734 C.3       3 UNK         0.0250 
     28 CB         23.7754   -3.9576   -6.3656 C.3       3 UNK        -0.1990 
     29 N          23.8252   -2.7607   -4.2258 N.am      3 UNK        -0.4232 
     30 C          23.1594   -1.9434   -3.3987 C.2       2 UNK         0.4993 
     31 O          22.4659   -1.0004   -3.7790 O.2       2 UNK        -0.5286 
     32 CA         23.2748   -2.2112   -1.8859 C.3       2 UNK         0.0209 
     33 CB         22.0026   -2.8996   -1.3641 C.3       2 UNK        -0.1931 
     34 N          24.4429   -3.0072   -1.4953 N.am      2 UNK        -0.4546 
     35 C          25.7176   -2.6245   -1.6508 C.2       1 UNK         0.5154 
     36 O          26.0485   -1.5577   -2.1776 O.2       1 UNK        -0.5181 
     37 C          27.1090    2.0787   -4.2807 C.2       5 UNK         0.5014 
     38 O          27.5041    3.2413   -4.3749 O.2       5 UNK        -0.5248 
     39 N          25.8745    1.6873   -4.6349 N.am      6 UNK        -0.4434 
     40 CA         24.8860    2.5632   -5.2684 C.3       6 UNK         0.0363 
     41 CB         23.4895    1.9281   -5.1826 C.3       6 UNK        -0.1936 
     42 C          25.2586    2.8857   -6.7248 C.2       6 UNK         0.5081 
     43 O          25.1478    4.0414   -7.1350 O.2       6 UNK        -0.5248 
     44 N          25.7130    1.8682   -7.4709 N.am      7 UNK        -0.4718 
     45 CA         26.2394    2.0040   -8.8307 C.3       7 UNK         0.0273 
     46 CB         26.3916    0.6111   -9.4616 C.3       7 UNK        -0.1935 
     47 C          27.5757    2.7627   -8.8750 C.2       7 UNK         0.5018 
     48 O          27.7966    3.5370   -9.8069 O.2       7 UNK        -0.5186 
     49 N          28.4432    2.5129   -7.8822 N.am      8 UNK        -0.4240 
     50 CA         29.7626    3.1050   -7.6189 C.3       8 UNK         0.0235 
     51 CB         29.6663    4.6273   -7.4042 C.3       8 UNK        -0.2000 
     52 C          30.8453    2.7521   -8.6537 C.2       8 UNK         0.4941 
     53 O          31.9728    2.4545   -8.2622 O.2       8 UNK        -0.5273 
     54 N          30.4935    2.7718   -9.9450 N.am      9 UNK        -0.4262 
     55 CA         31.3527    2.3798  -11.0647 C.3       9 UNK         0.0264 
     56 CB         30.7533    2.9236  -12.3714 C.3       9 UNK        -0.1955 
     57 C          31.5616    0.8580  -11.1624 C.2       9 UNK         0.5031 
     58 O          32.5658    0.4225  -11.7285 O.2       9 UNK        -0.5390 
     59 N          30.6275    0.0724  -10.6076 N.am      10 UNK        -0.4204 
     60 CA         30.6628   -1.3911  -10.5511 C.3       10 UNK         0.0237 
     61 CB         29.2221   -1.9144  -10.3923 C.3       10 UNK        -0.1985 
     62 C          31.5949   -1.8796   -9.4254 C.2       10 UNK         0.4970 
     63 O          31.1355   -2.5265   -8.4834 O.2       10 UNK        -0.4914 
     64 N          32.8801   -1.5337   -9.5350 N.am      11 UNK        -0.4285 
     65 CA         33.9233   -1.7804   -8.5342 C.3       11 UNK         0.1007 
     66 C          35.2402   -2.2769   -9.1877 C.2       11 UNK         0.5703 
     67 N          36.2095   -2.6894   -8.3824 N.am      11 UNK        -0.7361 
     68 O          35.3994   -2.2894  -10.4079 O.2       11 UNK        -0.4986 
     69 C69        34.1301   -0.5255   -7.6322 C.3       12 UNK        -0.0947 
     70 S70        33.9726   -0.9094   -5.8604 S.3       12 UNK        -0.2240 
     71 C71        32.2154   -0.5133   -5.6075 C.3       12 UNK         0.0194 
     72 H72        26.9290   -7.2179   -3.9021 H         1 UNK         0.0906 
     73 H73        26.2468   -7.4634   -2.2954 H         1 UNK         0.0906 
     74 H74        25.1899   -7.0728   -3.6520 H         1 UNK         0.0906 
     75 H75        26.5776   -5.7171   -0.9621 H         1 UNK         0.3140 
     76 H76        26.7056   -3.6787   -0.1046 H         1 UNK         0.1085 
     77 H77        28.3352   -3.0189   -2.5955 H         1 UNK         0.0836 
     78 H78        28.3499   -2.1393   -1.0885 H         1 UNK         0.0836 
     79 H79        30.5886   -4.4731   -3.0078 H         1 UNK         0.0731 
     80 H80        31.7975   -4.3482   -1.7526 H         1 UNK         0.0731 
     81 H81        31.7100   -2.9420   -4.5088 H         1 UNK         0.1312 
     82 H82        31.7030    1.2413   -3.5780 H         1 UNK         0.1406 
     83 H83        30.6330   -1.6148   -0.5739 H         1 UNK         0.1631 
     84 H84        31.6763    1.6637   -0.8405 H         1 UNK         0.0717 
     85 H85        30.5012    0.6573   -0.0330 H         1 UNK         0.0717 
     86 H86        28.4079   -0.0190   -1.8509 H         1 UNK         0.0934 
     87 H87        27.2003    1.2141   -1.7483 H         1 UNK         0.0934 
     88 H88        29.0622    1.2680   -4.1388 H         1 UNK         0.0739 
     89 H89        27.2617   -0.9765   -3.7470 H         1 UNK         0.3093 
     90 H90        27.6285   -1.9518   -7.2086 H         1 UNK         0.0818 
     91 H91        28.8053   -3.2855   -4.7247 H         1 UNK         0.0819 
     92 H92        28.4762   -4.0544   -6.2721 H         1 UNK         0.0819 
     93 H93        29.7050   -2.8076   -6.1549 H         1 UNK         0.0819 
     94 H94        26.3092   -3.3002   -5.0908 H         1 UNK         0.3041 
     95 H95        23.0699   -1.9681   -6.0224 H         1 UNK         0.0784 
     96 H96        23.8450   -3.8532   -7.4493 H         1 UNK         0.0793 
     97 H97        24.5579   -4.6502   -6.0535 H         1 UNK         0.0793 
     98 H98        22.8143   -4.4233   -6.1468 H         1 UNK         0.0793 
     99 H99        24.4176   -3.4790   -3.8267 H         1 UNK         0.3024 
    100 H100       23.3628   -1.2362   -1.4008 H         1 UNK         0.1171 
    101 H101       22.0248   -3.0080   -0.2796 H         1 UNK         0.0786 
    102 H102       21.1136   -2.3168   -1.6102 H         1 UNK         0.0786 
    103 H103       21.8727   -3.8911   -1.8001 H         1 UNK         0.0786 
    104 H104       24.2621   -3.9136   -1.0871 H         1 UNK         0.2977 
    105 H105       25.6307    0.7112   -4.5499 H         1 UNK         0.3127 
    106 H106       24.8606    3.5047   -4.7152 H         1 UNK         0.0770 
    107 H107       23.4406    0.9736   -5.7072 H         1 UNK         0.0814 
    108 H108       22.7377    2.5813   -5.6272 H         1 UNK         0.0814 
    109 H109       23.1954    1.7544   -4.1474 H         1 UNK         0.0814 
    110 H110       25.6856    0.9269   -7.0843 H         1 UNK         0.2983 
    111 H111       25.5168    2.5725   -9.4202 H         1 UNK         0.0947 
    112 H112       26.7949    0.6767  -10.4730 H         1 UNK         0.0806 
    113 H113       25.4303    0.1011   -9.5275 H         1 UNK         0.0806 
    114 H114       27.0611   -0.0209   -8.8779 H         1 UNK         0.0806 
    115 H115       28.2033    1.7611   -7.2397 H         1 UNK         0.3000 
    116 H116       30.0862    2.6639   -6.6743 H         1 UNK         0.0850 
    117 H117       30.6319    5.0398   -7.1094 H         1 UNK         0.0810 
    118 H118       28.9552    4.8677   -6.6133 H         1 UNK         0.0810 
    119 H119       29.3527    5.1501   -8.3082 H         1 UNK         0.0810 
    120 H120       29.5446    3.0724  -10.1605 H         1 UNK         0.3040 
    121 H121       32.3340    2.8372  -10.9202 H         1 UNK         0.0766 
    122 H122       30.6699    4.0103  -12.3471 H         1 UNK         0.0812 
    123 H123       29.7597    2.5152  -12.5610 H         1 UNK         0.0812 
    124 H124       31.3809    2.6668  -13.2260 H         1 UNK         0.0812 
    125 H125       29.8644    0.5228  -10.1256 H         1 UNK         0.3205 
    126 H126       31.0569   -1.7740  -11.4951 H         1 UNK         0.0754 
    127 H127       29.2007   -3.0050  -10.4042 H         1 UNK         0.0769 
    128 H128       28.5803   -1.5700  -11.2035 H         1 UNK         0.0769 
    129 H129       28.7780   -1.5921   -9.4500 H         1 UNK         0.0769 
    130 H130       33.1765   -1.0242  -10.3614 H         1 UNK         0.2981 
    131 H131       33.5930   -2.6220   -7.9218 H         1 UNK         0.0541 
    132 H132       36.0913   -2.6710   -7.3809 H         1 UNK         0.3459 
    133 H133       37.0762   -3.0153   -8.7814 H         1 UNK         0.3459 
    134 H134       33.4122    0.2588   -7.8755 H         1 UNK         0.0612 
    135 H135       35.1060   -0.0624   -7.7907 H         1 UNK         0.0612 
    136 H136       32.0421    0.5380   -5.8443 H         1 UNK         0.0624 
    137 H137       31.6062   -1.0882   -6.3049 H         1 UNK         0.0624 
@<TRIPOS>BOND
     1    1    2 1    
     2    1   72 1    
     3    1   73 1    
     4    1   74 1    
     5    2    3 2    
     6    2    4 am   BACKBONE|DICT|INTERRES
     7    4    5 1    
     8    4   75 1    
     9    5    6 1    
    10    5   35 1    
    11    5   76 1    
    12    6    7 1    
    13    6   77 1    
    14    6   78 1    
    15    7    8 1    
    16    8    9 1    
    17    8   79 1    
    18    8   80 1    
    19    9   10 ar   
    20    9   14 ar   
    21   10   11 ar   
    22   10   81 1    
    23   11   12 ar   
    24   11   71 1    
    25   12   13 ar   
    26   12   82 1    
    27   13   14 ar   
    28   13   15 1    
    29   14   83 1    
    30   15   16 1    
    31   15   84 1    
    32   15   85 1    
    33   16   17 1    
    34   17   18 1    
    35   17   86 1    
    36   17   87 1    
    37   18   19 1    
    38   18   37 1    
    39   18   88 1    
    40   19   20 am   BACKBONE|DICT|INTERRES
    41   19   89 1    
    42   20   21 2    
    43   20   22 1    
    44   22   23 1    
    45   22   24 1    
    46   22   90 1    
    47   23   91 1    
    48   23   92 1    
    49   23   93 1    
    50   24   25 am   BACKBONE|DICT|INTERRES
    51   24   94 1    
    52   25   26 2    
    53   25   27 1    
    54   27   28 1    
    55   27   29 1    
    56   27   95 1    
    57   28   96 1    
    58   28   97 1    
    59   28   98 1    
    60   29   30 am   BACKBONE|DICT|INTERRES
    61   29   99 1    
    62   30   31 2    
    63   30   32 1    
    64   32   33 1    
    65   32   34 1    
    66   32  100 1    
    67   33  101 1    
    68   33  102 1    
    69   33  103 1    
    70   34   35 am   BACKBONE|DICT|INTERRES
    71   34  104 1    
    72   35   36 2    
    73   37   38 2    
    74   37   39 am   BACKBONE|DICT|INTERRES
    75   39   40 1    
    76   39  105 1    
    77   40   41 1    
    78   40   42 1    
    79   40  106 1    
    80   41  107 1    
    81   41  108 1    
    82   41  109 1    
    83   42   43 2    
    84   42   44 am   BACKBONE|DICT|INTERRES
    85   44   45 1    
    86   44  110 1    
    87   45   46 1    
    88   45   47 1    
    89   45  111 1    
    90   46  112 1    
    91   46  113 1    
    92   46  114 1    
    93   47   48 2    
    94   47   49 am   BACKBONE|DICT|INTERRES
    95   49   50 1    
    96   49  115 1    
    97   50   51 1    
    98   50   52 1    
    99   50  116 1    
   100   51  117 1    
   101   51  118 1    
   102   51  119 1    
   103   52   53 2    
   104   52   54 am   BACKBONE|DICT|INTERRES
   105   54   55 1    
   106   54  120 1    
   107   55   56 1    
   108   55   57 1    
   109   55  121 1    
   110   56  122 1    
   111   56  123 1    
   112   56  124 1    
   113   57   58 2    
   114   57   59 am   BACKBONE|DICT|INTERRES
   115   59   60 1    
   116   59  125 1    
   117   60   61 1    
   118   60   62 1    
   119   60  126 1    
   120   61  127 1    
   121   61  128 1    
   122   61  129 1    
   123   62   63 2    
   124   62   64 am   BACKBONE|DICT|INTERRES
   125   64   65 1    
   126   64  130 1    
   127   65   66 1    
   128   65   69 1    
   129   65  131 1    
   130   66   67 am   BACKBONE|DICT|INTERRES
   131   66   68 2    
   132   67  132 1    
   133   67  133 1    
   134   69   70 1    
   135   69  134 1    
   136   69  135 1    
   137   70   71 1    
   138   71  136 1    
   139   71  137 1    
@<TRIPOS>SUBSTRUCTURE
     1 UNK         1 GROUP             0       ****    0 ROOT    
