@<TRIPOS>MOLECULE
3R137
137   139    1
SMALL
USER_CHARGES


@<TRIPOS>ATOM
      1 CA         28.0448    1.5569    1.1690 C.3       0 UNK        -0.2020 
      2 C          27.2269    0.5967    2.0292 C.2       0 UNK         0.4855 
      3 O          26.9118    0.9276    3.1708 O.2       0 UNK        -0.5197 
      4 N          26.8516   -0.5886    1.5350 N.am      1 UNK        -0.4892 
      5 CA         27.0982   -1.1076    0.1898 C.3       1 UNK         0.0835 
      6 C6         28.5112   -1.7385    0.0405 C.3       12 UNK        -0.0855 
      7 S7         29.1101   -1.5998   -1.6754 S.3       12 UNK        -0.2931 
      8 C8         30.2599   -3.0020   -1.7850 C.3       12 UNK         0.0378 
      9 C9         30.4928   -3.3969   -3.2352 C.ar      12 UNK        -0.0802 
     10 C10        31.6621   -3.0235   -3.9060 C.ar      12 UNK        -0.0944 
     11 C11        31.8851   -3.4414   -5.2227 C.ar      12 UNK        -0.0787 
     12 C12        30.9142   -4.2095   -5.8768 C.ar      12 UNK        -0.0862 
     13 C13        29.7390   -4.5834   -5.2169 C.ar      12 UNK        -0.0733 
     14 C14        29.5401   -4.1767   -3.8954 C.ar      12 UNK        -0.0832 
     15 C15        28.7176   -5.4857   -5.9002 C.3       12 UNK         0.0240 
     16 S16        27.7677   -4.6414   -7.2044 S.3       12 UNK        -0.2522 
     17 C17        26.7281   -3.4772   -6.2536 C.3       12 UNK        -0.0967 
     18 CA         26.5260   -2.1293   -6.9888 C.3       5 UNK         0.0660 
     19 N          25.4052   -1.3456   -6.4412 N.am      5 UNK        -0.4015 
     20 C          24.9890   -0.1668   -6.9398 C.2       4 UNK         0.4946 
     21 O          25.5671    0.4169   -7.8570 O.2       4 UNK        -0.5353 
     22 CA         23.7204    0.4937   -6.3694 C.3       4 UNK         0.0277 
     23 CB         22.6784    0.7042   -7.4824 C.3       4 UNK        -0.1981 
     24 N          23.0919   -0.2476   -5.2776 N.am      4 UNK        -0.4209 
     25 C          23.4182   -0.1374   -3.9847 C.2       3 UNK         0.4942 
     26 O          24.3272    0.5811   -3.5660 O.2       3 UNK        -0.5208 
     27 CA         22.6065   -0.9824   -2.9814 C.3       3 UNK         0.0250 
     28 CB         21.3759   -1.6941   -3.5913 C.3       3 UNK        -0.1990 
     29 N          23.4588   -1.9496   -2.2849 N.am      3 UNK        -0.4232 
     30 C          24.2528   -2.8714   -2.8475 C.2       2 UNK         0.4993 
     31 O          24.3616   -3.0377   -4.0651 O.2       2 UNK        -0.5286 
     32 CA         25.1118   -3.6939   -1.8740 C.3       2 UNK         0.0209 
     33 CB         25.7928   -4.8955   -2.5545 C.3       2 UNK        -0.1931 
     34 N          26.1304   -2.8279   -1.2769 N.am      2 UNK        -0.4546 
     35 C          25.9468   -2.0592   -0.1962 C.2       1 UNK         0.5154 
     36 O          24.9036   -2.0656    0.4649 O.2       1 UNK        -0.5181 
     37 C          27.8422   -1.3311   -7.0916 C.2       5 UNK         0.5014 
     38 O          28.4397   -1.2947   -8.1676 O.2       5 UNK        -0.5248 
     39 N          28.2372   -0.6576   -6.0017 N.am      6 UNK        -0.4434 
     40 CA         29.4453    0.1701   -5.9624 C.3       6 UNK         0.0363 
     41 CB         29.7611    0.5822   -4.5182 C.3       6 UNK        -0.1936 
     42 C          29.3870    1.4060   -6.8729 C.2       6 UNK         0.5081 
     43 O          30.4342    1.8368   -7.3518 O.2       6 UNK        -0.5248 
     44 N          28.1859    1.9476   -7.1140 N.am      7 UNK        -0.4718 
     45 CA         27.9700    3.0511   -8.0506 C.3       7 UNK         0.0273 
     46 CB         26.6238    3.7343   -7.7583 C.3       7 UNK        -0.1935 
     47 C          28.0448    2.5685   -9.5070 C.2       7 UNK         0.5018 
     48 O          28.7026    3.2133  -10.3234 O.2       7 UNK        -0.5186 
     49 N          27.3957    1.4315   -9.7947 N.am      8 UNK        -0.4240 
     50 CA         27.3678    0.7868  -11.1086 C.3       8 UNK         0.0235 
     51 CB         26.3332   -0.3507  -11.0974 C.3       8 UNK        -0.2000 
     52 C          28.7449    0.2687  -11.5541 C.2       8 UNK         0.4941 
     53 O          29.1362    0.5013  -12.6985 O.2       8 UNK        -0.5273 
     54 N          29.4574   -0.4114  -10.6459 N.am      9 UNK        -0.4262 
     55 CA         30.7921   -0.9669  -10.8858 C.3       9 UNK         0.0264 
     56 CB         30.9974   -2.1795   -9.9636 C.3       9 UNK        -0.1955 
     57 C          31.9308    0.0579  -10.7153 C.2       9 UNK         0.5031 
     58 O          33.0645   -0.2591  -11.0789 O.2       9 UNK        -0.5390 
     59 N          31.6214    1.2501  -10.1802 N.am      10 UNK        -0.4204 
     60 CA         32.5342    2.3615   -9.8782 C.3       10 UNK         0.0237 
     61 CB         33.1185    2.9664  -11.1729 C.3       10 UNK        -0.1985 
     62 C          33.6106    1.9718   -8.8448 C.2       10 UNK         0.4970 
     63 O          34.8019    2.1993   -9.0661 O.2       10 UNK        -0.4914 
     64 N          33.1564    1.3827   -7.7340 N.am      11 UNK        -0.4285 
     65 CA         33.9865    0.9297   -6.6066 C.3       11 UNK         0.1007 
     66 C          34.3349    2.0569   -5.5932 C.2       11 UNK         0.5703 
     67 N          33.7248    3.2345   -5.6689 N.am      11 UNK        -0.7361 
     68 O          35.1852    1.8625   -4.7279 O.2       11 UNK        -0.4986 
     69 C69        33.3584   -0.2931   -5.8848 C.3       12 UNK        -0.0947 
     70 S70        33.0754   -1.6890   -7.0229 S.3       12 UNK        -0.2240 
     71 C71        33.2016   -3.1272   -5.9201 C.3       12 UNK         0.0194 
     72 H72        27.4166    2.0093    0.4022 H         1 UNK         0.0906 
     73 H73        28.4543    2.3605    1.7807 H         1 UNK         0.0906 
     74 H74        28.8819    1.0580    0.6837 H         1 UNK         0.0906 
     75 H75        26.2369   -1.1778    2.0835 H         1 UNK         0.3140 
     76 H76        27.0052   -0.2689   -0.5037 H         1 UNK         0.1085 
     77 H77        29.2378   -1.2309    0.6759 H         1 UNK         0.0836 
     78 H78        28.5154   -2.7787    0.3722 H         1 UNK         0.0836 
     79 H79        29.8596   -3.8590   -1.2412 H         1 UNK         0.0731 
     80 H80        31.1995   -2.7376   -1.2973 H         1 UNK         0.0731 
     81 H81        32.4105   -2.4329   -3.3954 H         1 UNK         0.1312 
     82 H82        31.0843   -4.5382   -6.8931 H         1 UNK         0.1406 
     83 H83        28.6512   -4.4831   -3.3650 H         1 UNK         0.1631 
     84 H84        28.0230   -5.9097   -5.1732 H         1 UNK         0.0717 
     85 H85        29.2394   -6.3333   -6.3465 H         1 UNK         0.0717 
     86 H86        25.7654   -3.9668   -6.0997 H         1 UNK         0.0934 
     87 H87        27.1460   -3.3129   -5.2601 H         1 UNK         0.0934 
     88 H88        26.2307   -2.3637   -8.0140 H         1 UNK         0.0739 
     89 H89        24.8900   -1.7698   -5.6765 H         1 UNK         0.3093 
     90 H90        24.0182    1.4783   -6.0021 H         1 UNK         0.0818 
     91 H91        21.7969    1.2251   -7.1082 H         1 UNK         0.0819 
     92 H92        23.0858    1.3092   -8.2940 H         1 UNK         0.0819 
     93 H93        22.3523   -0.2423   -7.9153 H         1 UNK         0.0819 
     94 H94        22.3552   -0.8909   -5.5300 H         1 UNK         0.3041 
     95 H95        22.2432   -0.2855   -2.2245 H         1 UNK         0.0784 
     96 H96        20.6976   -0.9812   -4.0625 H         1 UNK         0.0793 
     97 H97        21.6537   -2.4393   -4.3379 H         1 UNK         0.0793 
     98 H98        20.8039   -2.2079   -2.8185 H         1 UNK         0.0793 
     99 H99        23.5057   -1.8506   -1.2774 H         1 UNK         0.3024 
    100 H100       24.4543   -4.0844   -1.0933 H         1 UNK         0.1171 
    101 H101       25.0476   -5.5943   -2.9367 H         1 UNK         0.0786 
    102 H102       26.4064   -4.5904   -3.3998 H         1 UNK         0.0786 
    103 H103       26.4248   -5.4448   -1.8565 H         1 UNK         0.0786 
    104 H104       27.0028   -2.7309   -1.7805 H         1 UNK         0.2977 
    105 H105       27.6869   -0.7167   -5.1576 H         1 UNK         0.3127 
    106 H106       30.2704   -0.4464   -6.3253 H         1 UNK         0.0770 
    107 H107       30.5566    1.3281   -4.4815 H         1 UNK         0.0814 
    108 H108       30.1106   -0.2753   -3.9466 H         1 UNK         0.0814 
    109 H109       28.8934    1.0056   -4.0116 H         1 UNK         0.0814 
    110 H110       27.3636    1.4967   -6.7379 H         1 UNK         0.2983 
    111 H111       28.7605    3.7911   -7.9040 H         1 UNK         0.0947 
    112 H112       26.4680    4.5833   -8.4252 H         1 UNK         0.0806 
    113 H113       26.5862    4.1143   -6.7373 H         1 UNK         0.0806 
    114 H114       25.7805    3.0571   -7.8948 H         1 UNK         0.0806 
    115 H115       26.8519    0.9860   -9.0568 H         1 UNK         0.3000 
    116 H116       27.0441    1.5339  -11.8364 H         1 UNK         0.0850 
    117 H117       25.3366    0.0236  -10.8620 H         1 UNK         0.0810 
    118 H118       26.5824   -1.1156  -10.3608 H         1 UNK         0.0810 
    119 H119       26.2765   -0.8385  -12.0714 H         1 UNK         0.0810 
    120 H120       29.0430   -0.6065   -9.7334 H         1 UNK         0.3040 
    121 H121       30.8417   -1.3246  -11.9165 H         1 UNK         0.0766 
    122 H122       30.9077   -1.9015   -8.9140 H         1 UNK         0.0812 
    123 H123       31.9848   -2.6219  -10.1023 H         1 UNK         0.0812 
    124 H124       30.2606   -2.9579  -10.1622 H         1 UNK         0.0812 
    125 H125       30.6614    1.3939   -9.8975 H         1 UNK         0.3205 
    126 H126       31.9239    3.1330   -9.4059 H         1 UNK         0.0754 
    127 H127       33.7033    3.8610  -10.9553 H         1 UNK         0.0769 
    128 H128       32.3278    3.2568  -11.8648 H         1 UNK         0.0769 
    129 H129       33.7762    2.2667  -11.6894 H         1 UNK         0.0769 
    130 H130       32.1488    1.3180   -7.6057 H         1 UNK         0.2981 
    131 H131       34.9439    0.5996   -7.0143 H         1 UNK         0.0541 
    132 H132       33.0187    3.3984   -6.3684 H         1 UNK         0.3459 
    133 H133       33.9643    3.9587   -5.0105 H         1 UNK         0.3459 
    134 H134       32.4123   -0.0244   -5.4168 H         1 UNK         0.0612 
    135 H135       34.0128   -0.6299   -5.0791 H         1 UNK         0.0612 
    136 H136       33.5040   -3.9888   -6.5171 H         1 UNK         0.0624 
    137 H137       34.0004   -2.9747   -5.1931 H         1 UNK         0.0624 
@<TRIPOS>BOND
     1    1    2 1    
     2    1   72 1    
     3    1   73 1    
     4    1   74 1    
     5    2    3 2    
     6    2    4 am   BACKBONE|DICT|INTERRES
     7    4    5 1    
     8    4   75 1    
     9    5    6 1    
    10    5   35 1    
    11    5   76 1    
    12    6    7 1    
    13    6   77 1    
    14    6   78 1    
    15    7    8 1    
    16    8    9 1    
    17    8   79 1    
    18    8   80 1    
    19    9   10 ar   
    20    9   14 ar   
    21   10   11 ar   
    22   10   81 1    
    23   11   12 ar   
    24   11   71 1    
    25   12   13 ar   
    26   12   82 1    
    27   13   14 ar   
    28   13   15 1    
    29   14   83 1    
    30   15   16 1    
    31   15   84 1    
    32   15   85 1    
    33   16   17 1    
    34   17   18 1    
    35   17   86 1    
    36   17   87 1    
    37   18   19 1    
    38   18   37 1    
    39   18   88 1    
    40   19   20 am   BACKBONE|DICT|INTERRES
    41   19   89 1    
    42   20   21 2    
    43   20   22 1    
    44   22   23 1    
    45   22   24 1    
    46   22   90 1    
    47   23   91 1    
    48   23   92 1    
    49   23   93 1    
    50   24   25 am   BACKBONE|DICT|INTERRES
    51   24   94 1    
    52   25   26 2    
    53   25   27 1    
    54   27   28 1    
    55   27   29 1    
    56   27   95 1    
    57   28   96 1    
    58   28   97 1    
    59   28   98 1    
    60   29   30 am   BACKBONE|DICT|INTERRES
    61   29   99 1    
    62   30   31 2    
    63   30   32 1    
    64   32   33 1    
    65   32   34 1    
    66   32  100 1    
    67   33  101 1    
    68   33  102 1    
    69   33  103 1    
    70   34   35 am   BACKBONE|DICT|INTERRES
    71   34  104 1    
    72   35   36 2    
    73   37   38 2    
    74   37   39 am   BACKBONE|DICT|INTERRES
    75   39   40 1    
    76   39  105 1    
    77   40   41 1    
    78   40   42 1    
    79   40  106 1    
    80   41  107 1    
    81   41  108 1    
    82   41  109 1    
    83   42   43 2    
    84   42   44 am   BACKBONE|DICT|INTERRES
    85   44   45 1    
    86   44  110 1    
    87   45   46 1    
    88   45   47 1    
    89   45  111 1    
    90   46  112 1    
    91   46  113 1    
    92   46  114 1    
    93   47   48 2    
    94   47   49 am   BACKBONE|DICT|INTERRES
    95   49   50 1    
    96   49  115 1    
    97   50   51 1    
    98   50   52 1    
    99   50  116 1    
   100   51  117 1    
   101   51  118 1    
   102   51  119 1    
   103   52   53 2    
   104   52   54 am   BACKBONE|DICT|INTERRES
   105   54   55 1    
   106   54  120 1    
   107   55   56 1    
   108   55   57 1    
   109   55  121 1    
   110   56  122 1    
   111   56  123 1    
   112   56  124 1    
   113   57   58 2    
   114   57   59 am   BACKBONE|DICT|INTERRES
   115   59   60 1    
   116   59  125 1    
   117   60   61 1    
   118   60   62 1    
   119   60  126 1    
   120   61  127 1    
   121   61  128 1    
   122   61  129 1    
   123   62   63 2    
   124   62   64 am   BACKBONE|DICT|INTERRES
   125   64   65 1    
   126   64  130 1    
   127   65   66 1    
   128   65   69 1    
   129   65  131 1    
   130   66   67 am   BACKBONE|DICT|INTERRES
   131   66   68 2    
   132   67  132 1    
   133   67  133 1    
   134   69   70 1    
   135   69  134 1    
   136   69  135 1    
   137   70   71 1    
   138   71  136 1    
   139   71  137 1    
@<TRIPOS>SUBSTRUCTURE
     1 UNK         1 GROUP             0       ****    0 ROOT    
