@<TRIPOS>MOLECULE
3R137
137   139    1
SMALL
USER_CHARGES


@<TRIPOS>ATOM
      1 CA         26.9240   -7.4838    0.2210 C.3       0 UNK        -0.2020 
      2 C          27.0898   -5.9750    0.1160 C.2       0 UNK         0.4855 
      3 O          26.8950   -5.2672    1.1050 O.2       0 UNK        -0.5197 
      4 N          27.4582   -5.4786   -1.0711 N.am      1 UNK        -0.4892 
      5 CA         27.6169   -4.0509   -1.3665 C.3       1 UNK         0.0835 
      6 C6         28.3779   -3.8144   -2.6937 C.3       12 UNK        -0.0855 
      7 S7         30.0424   -4.5575   -2.7363 S.3       12 UNK        -0.2931 
      8 C8         31.0659   -3.2778   -1.9331 C.3       12 UNK         0.0378 
      9 C9         31.0033   -1.9201   -2.6257 C.ar      12 UNK        -0.0802 
     10 C10        31.3419   -1.7927   -3.9771 C.ar      12 UNK        -0.0944 
     11 C11        31.3066   -0.5420   -4.5992 C.ar      12 UNK        -0.0787 
     12 C12        30.9534    0.5875   -3.8581 C.ar      12 UNK        -0.0862 
     13 C13        30.5916    0.4756   -2.5122 C.ar      12 UNK        -0.0733 
     14 C14        30.6234   -0.7833   -1.9028 C.ar      12 UNK        -0.0832 
     15 C15        30.1850    1.7032   -1.6971 C.3       12 UNK         0.0240 
     16 S16        29.1169    2.8875   -2.5928 S.3       12 UNK        -0.2522 
     17 C17        27.7345    1.8272   -3.1293 C.3       12 UNK        -0.0967 
     18 CA         27.7021    1.6589   -4.6754 C.3       5 UNK         0.0660 
     19 N          27.4321    0.2782   -5.0709 N.am      5 UNK        -0.4015 
     20 C          27.6542   -0.2381   -6.2876 C.2       4 UNK         0.4946 
     21 O          28.1879    0.3749   -7.2134 O.2       4 UNK        -0.5353 
     22 CA         27.1756   -1.6837   -6.5145 C.3       4 UNK         0.0277 
     23 CB         28.3193   -2.6746   -6.2454 C.3       4 UNK        -0.1981 
     24 N          26.0135   -2.0398   -5.6899 N.am      4 UNK        -0.4209 
     25 C          24.7956   -1.4941   -5.8271 C.2       3 UNK         0.4942 
     26 O          24.5151   -0.6549   -6.6804 O.2       3 UNK        -0.5208 
     27 CA         23.7305   -1.9053   -4.7994 C.3       3 UNK         0.0250 
     28 CB         23.1485   -3.2870   -5.1368 C.3       3 UNK        -0.1990 
     29 N          24.2271   -1.9016   -3.4204 N.am      3 UNK        -0.4232 
     30 C          24.7084   -0.8361   -2.7671 C.2       2 UNK         0.4993 
     31 O          24.8385    0.2757   -3.2792 O.2       2 UNK        -0.5286 
     32 CA         25.1655   -1.0504   -1.3138 C.3       2 UNK         0.0209 
     33 CB         23.9814   -1.3899   -0.3858 C.3       2 UNK        -0.1931 
     34 N          26.2658   -2.0185   -1.1835 N.am      2 UNK        -0.4546 
     35 C          26.2524   -3.3360   -1.4377 C.2       1 UNK         0.5154 
     36 O          25.2485   -3.9597   -1.7951 O.2       1 UNK        -0.5181 
     37 C          26.6972    2.6147   -5.3437 C.2       5 UNK         0.5014 
     38 O          27.1100    3.5869   -5.9762 O.2       5 UNK        -0.5248 
     39 N          25.4001    2.2906   -5.2288 N.am      6 UNK        -0.4434 
     40 CA         24.2875    3.0202   -5.8434 C.3       6 UNK         0.0363 
     41 CB         22.9571    2.4282   -5.3516 C.3       6 UNK        -0.1936 
     42 C          24.3430    3.0300   -7.3812 C.2       6 UNK         0.5081 
     43 O          24.0618    4.0621   -7.9906 O.2       6 UNK        -0.5248 
     44 N          24.7293    1.8946   -7.9788 N.am      7 UNK        -0.4718 
     45 CA         24.9425    1.7389   -9.4205 C.3       7 UNK         0.0273 
     46 CB         24.9806    0.2397   -9.7604 C.3       7 UNK        -0.1935 
     47 C          26.2185    2.4277   -9.9400 C.2       7 UNK         0.5018 
     48 O          26.3331    2.6137  -11.1522 O.2       7 UNK        -0.5186 
     49 N          27.1478    2.7695   -9.0330 N.am      8 UNK        -0.4240 
     50 CA         28.4821    3.3265   -9.2839 C.3       8 UNK         0.0235 
     51 CB         28.3849    4.7584   -9.8523 C.3       8 UNK        -0.2000 
     52 C          29.3438    2.3829  -10.1450 C.2       8 UNK         0.4941 
     53 O          29.8735    2.7915  -11.1815 O.2       8 UNK        -0.5273 
     54 N          29.4320    1.1203   -9.7073 N.am      9 UNK        -0.4262 
     55 CA         30.1933    0.0517  -10.3569 C.3       9 UNK         0.0264 
     56 CB         29.7344   -1.2911   -9.7621 C.3       9 UNK        -0.1955 
     57 C          31.7176    0.2249  -10.2032 C.2       9 UNK         0.5031 
     58 O          32.1796    1.0888   -9.4551 O.2       9 UNK        -0.5390 
     59 N          32.4753   -0.6396  -10.8939 N.am      10 UNK        -0.4204 
     60 CA         33.9405   -0.7236  -10.8166 C.3       10 UNK         0.0237 
     61 CB         34.4561   -1.5709  -11.9921 C.3       10 UNK        -0.1985 
     62 C          34.4719   -1.2800   -9.4782 C.2       10 UNK         0.4970 
     63 O          35.6514   -1.0859   -9.1798 O.2       10 UNK        -0.4914 
     64 N          33.6010   -1.9469   -8.7081 N.am      11 UNK        -0.4285 
     65 CA         33.8611   -2.5348   -7.3831 C.3       11 UNK         0.1007 
     66 C          34.8126   -3.7692   -7.4355 C.2       11 UNK         0.5703 
     67 N          35.3471   -4.2118   -6.3044 N.am      11 UNK        -0.7361 
     68 O          35.0351   -4.3683   -8.4868 O.2       11 UNK        -0.4986 
     69 C69        34.2588   -1.4865   -6.2919 C.3       12 UNK        -0.0947 
     70 S70        33.3535    0.1009   -6.3428 S.3       12 UNK        -0.2240 
     71 C71        31.6265   -0.3977   -6.0763 C.3       12 UNK         0.0194 
     72 H72        25.9008   -7.7295    0.5043 H         1 UNK         0.0906 
     73 H73        27.1445   -7.9852   -0.7213 H         1 UNK         0.0906 
     74 H74        27.5939   -7.8831    0.9820 H         1 UNK         0.0906 
     75 H75        27.6007   -6.1028   -1.8522 H         1 UNK         0.3140 
     76 H76        28.1900   -3.6040   -0.5508 H         1 UNK         0.1085 
     77 H77        28.4640   -2.7473   -2.9036 H         1 UNK         0.0836 
     78 H78        27.8155   -4.2367   -3.5290 H         1 UNK         0.0836 
     79 H79        32.1026   -3.6166   -1.9233 H         1 UNK         0.0731 
     80 H80        30.7637   -3.1964   -0.8879 H         1 UNK         0.0731 
     81 H81        31.6263   -2.6689   -4.5435 H         1 UNK         0.1312 
     82 H82        30.9484    1.5558   -4.3387 H         1 UNK         0.1406 
     83 H83        30.3643   -0.8758   -0.8567 H         1 UNK         0.1631 
     84 H84        31.0890    2.2227   -1.3773 H         1 UNK         0.0717 
     85 H85        29.6654    1.4006   -0.7865 H         1 UNK         0.0717 
     86 H86        27.8342    0.8590   -2.6369 H         1 UNK         0.0934 
     87 H87        26.8039    2.2423   -2.7361 H         1 UNK         0.0934 
     88 H88        28.6852    1.9035   -5.0827 H         1 UNK         0.0739 
     89 H89        26.9378   -0.2878   -4.3992 H         1 UNK         0.3093 
     90 H90        26.8824   -1.7747   -7.5624 H         1 UNK         0.0818 
     91 H91        29.1441   -2.5166   -6.9385 H         1 UNK         0.0819 
     92 H92        27.9941   -3.7079   -6.3671 H         1 UNK         0.0819 
     93 H93        28.7263   -2.5622   -5.2416 H         1 UNK         0.0819 
     94 H94        26.1488   -2.7373   -4.9735 H         1 UNK         0.3041 
     95 H95        22.9226   -1.1728   -4.8570 H         1 UNK         0.0784 
     96 H96        22.7677   -3.3116   -6.1590 H         1 UNK         0.0793 
     97 H97        23.8956   -4.0765   -5.0464 H         1 UNK         0.0793 
     98 H98        22.3172   -3.5370   -4.4774 H         1 UNK         0.0793 
     99 H99        24.2379   -2.7891   -2.9236 H         1 UNK         0.3024 
    100 H100       25.5681   -0.0930   -0.9772 H         1 UNK         0.1171 
    101 H101       24.3022   -1.4551    0.6538 H         1 UNK         0.0786 
    102 H102       23.2137   -0.6167   -0.4389 H         1 UNK         0.0786 
    103 H103       23.5043   -2.3349   -0.6460 H         1 UNK         0.0786 
    104 H104       27.1485   -1.6085   -0.9106 H         1 UNK         0.2977 
    105 H105       25.1516    1.4889   -4.6512 H         1 UNK         0.3127 
    106 H106       24.3473    4.0565   -5.5045 H         1 UNK         0.0770 
    107 H107       22.8501    1.3821   -5.6412 H         1 UNK         0.0814 
    108 H108       22.1091    2.9720   -5.7698 H         1 UNK         0.0814 
    109 H109       22.8756    2.4834   -4.2659 H         1 UNK         0.0814 
    110 H110       24.8521    1.0600   -7.4087 H         1 UNK         0.2983 
    111 H111       24.0947    2.1883   -9.9423 H         1 UNK         0.0947 
    112 H112       25.0948    0.0828  -10.8338 H         1 UNK         0.0806 
    113 H113       24.0609   -0.2604   -9.4562 H         1 UNK         0.0806 
    114 H114       25.8140   -0.2613   -9.2666 H         1 UNK         0.0806 
    115 H115       26.9440    2.5681   -8.0621 H         1 UNK         0.3000 
    116 H116       28.9739    3.3903   -8.3116 H         1 UNK         0.0850 
    117 H117       29.3743    5.2079   -9.9439 H         1 UNK         0.0810 
    118 H118       27.7946    5.4024   -9.2004 H         1 UNK         0.0810 
    119 H119       27.9287    4.7739  -10.8426 H         1 UNK         0.0810 
    120 H120       28.9801    0.8821   -8.8256 H         1 UNK         0.3040 
    121 H121       29.9548    0.0659  -11.4225 H         1 UNK         0.0766 
    122 H122       28.6512   -1.4027   -9.8204 H         1 UNK         0.0812 
    123 H123       30.0214   -1.3731   -8.7146 H         1 UNK         0.0812 
    124 H124       30.1715   -2.1382  -10.2913 H         1 UNK         0.0812 
    125 H125       32.0190   -1.3077  -11.4990 H         1 UNK         0.3205 
    126 H126       34.3403    0.2871  -10.9241 H         1 UNK         0.0754 
    127 H127       35.5460   -1.6216  -11.9884 H         1 UNK         0.0769 
    128 H128       34.1580   -1.1453  -12.9506 H         1 UNK         0.0769 
    129 H129       34.0834   -2.5951  -11.9463 H         1 UNK         0.0769 
    130 H130       32.6708   -2.0864   -9.0684 H         1 UNK         0.2981 
    131 H131       32.9043   -2.9623   -7.0850 H         1 UNK         0.0541 
    132 H132       35.9473   -5.0212   -6.3329 H         1 UNK         0.3459 
    133 H133       35.1689   -3.7517   -5.4261 H         1 UNK         0.3459 
    134 H134       34.1289   -1.9088   -5.2945 H         1 UNK         0.0612 
    135 H135       35.3190   -1.2435   -6.3806 H         1 UNK         0.0612 
    136 H136       30.9798    0.3645   -6.5145 H         1 UNK         0.0624 
    137 H137       31.4009   -1.3174   -6.6136 H         1 UNK         0.0624 
@<TRIPOS>BOND
     1    1    2 1    
     2    1   72 1    
     3    1   73 1    
     4    1   74 1    
     5    2    3 2    
     6    2    4 am   BACKBONE|DICT|INTERRES
     7    4    5 1    
     8    4   75 1    
     9    5    6 1    
    10    5   35 1    
    11    5   76 1    
    12    6    7 1    
    13    6   77 1    
    14    6   78 1    
    15    7    8 1    
    16    8    9 1    
    17    8   79 1    
    18    8   80 1    
    19    9   10 ar   
    20    9   14 ar   
    21   10   11 ar   
    22   10   81 1    
    23   11   12 ar   
    24   11   71 1    
    25   12   13 ar   
    26   12   82 1    
    27   13   14 ar   
    28   13   15 1    
    29   14   83 1    
    30   15   16 1    
    31   15   84 1    
    32   15   85 1    
    33   16   17 1    
    34   17   18 1    
    35   17   86 1    
    36   17   87 1    
    37   18   19 1    
    38   18   37 1    
    39   18   88 1    
    40   19   20 am   BACKBONE|DICT|INTERRES
    41   19   89 1    
    42   20   21 2    
    43   20   22 1    
    44   22   23 1    
    45   22   24 1    
    46   22   90 1    
    47   23   91 1    
    48   23   92 1    
    49   23   93 1    
    50   24   25 am   BACKBONE|DICT|INTERRES
    51   24   94 1    
    52   25   26 2    
    53   25   27 1    
    54   27   28 1    
    55   27   29 1    
    56   27   95 1    
    57   28   96 1    
    58   28   97 1    
    59   28   98 1    
    60   29   30 am   BACKBONE|DICT|INTERRES
    61   29   99 1    
    62   30   31 2    
    63   30   32 1    
    64   32   33 1    
    65   32   34 1    
    66   32  100 1    
    67   33  101 1    
    68   33  102 1    
    69   33  103 1    
    70   34   35 am   BACKBONE|DICT|INTERRES
    71   34  104 1    
    72   35   36 2    
    73   37   38 2    
    74   37   39 am   BACKBONE|DICT|INTERRES
    75   39   40 1    
    76   39  105 1    
    77   40   41 1    
    78   40   42 1    
    79   40  106 1    
    80   41  107 1    
    81   41  108 1    
    82   41  109 1    
    83   42   43 2    
    84   42   44 am   BACKBONE|DICT|INTERRES
    85   44   45 1    
    86   44  110 1    
    87   45   46 1    
    88   45   47 1    
    89   45  111 1    
    90   46  112 1    
    91   46  113 1    
    92   46  114 1    
    93   47   48 2    
    94   47   49 am   BACKBONE|DICT|INTERRES
    95   49   50 1    
    96   49  115 1    
    97   50   51 1    
    98   50   52 1    
    99   50  116 1    
   100   51  117 1    
   101   51  118 1    
   102   51  119 1    
   103   52   53 2    
   104   52   54 am   BACKBONE|DICT|INTERRES
   105   54   55 1    
   106   54  120 1    
   107   55   56 1    
   108   55   57 1    
   109   55  121 1    
   110   56  122 1    
   111   56  123 1    
   112   56  124 1    
   113   57   58 2    
   114   57   59 am   BACKBONE|DICT|INTERRES
   115   59   60 1    
   116   59  125 1    
   117   60   61 1    
   118   60   62 1    
   119   60  126 1    
   120   61  127 1    
   121   61  128 1    
   122   61  129 1    
   123   62   63 2    
   124   62   64 am   BACKBONE|DICT|INTERRES
   125   64   65 1    
   126   64  130 1    
   127   65   66 1    
   128   65   69 1    
   129   65  131 1    
   130   66   67 am   BACKBONE|DICT|INTERRES
   131   66   68 2    
   132   67  132 1    
   133   67  133 1    
   134   69   70 1    
   135   69  134 1    
   136   69  135 1    
   137   70   71 1    
   138   71  136 1    
   139   71  137 1    
@<TRIPOS>SUBSTRUCTURE
     1 UNK         1 GROUP             0       ****    0 ROOT    
