@<TRIPOS>MOLECULE
3R137
137   139    1
SMALL
USER_CHARGES


@<TRIPOS>ATOM
      1 CA         28.7193    1.9199   -0.0315 C.3       0 UNK        -0.2020 
      2 C          28.0625    0.5521   -0.1377 C.2       0 UNK         0.4855 
      3 O          27.1110    0.2737    0.5906 O.2       0 UNK        -0.5197 
      4 N          28.5458   -0.2892   -1.0614 N.am      1 UNK        -0.4892 
      5 CA         28.1578   -1.6907   -1.3196 C.3       1 UNK         0.0835 
      6 C6         28.3913   -2.6363   -0.1079 C.3       12 UNK        -0.0855 
      7 S7         30.1202   -2.5938    0.4880 S.3       12 UNK        -0.2931 
      8 C8         30.8559   -4.0443   -0.3380 C.3       12 UNK         0.0378 
      9 C9         30.7183   -3.9711   -1.8526 C.ar      12 UNK        -0.0802 
     10 C10        31.4251   -3.0107   -2.5807 C.ar      12 UNK        -0.0944 
     11 C11        31.2562   -2.9043   -3.9637 C.ar      12 UNK        -0.0787 
     12 C12        30.3955   -3.7883   -4.6242 C.ar      12 UNK        -0.0862 
     13 C13        29.6881   -4.7659   -3.9083 C.ar      12 UNK        -0.0733 
     14 C14        29.8595   -4.8461   -2.5230 C.ar      12 UNK        -0.0832 
     15 C15        28.7572   -5.7818   -4.5747 C.3       12 UNK         0.0240 
     16 S16        28.1181   -5.3227   -6.2193 S.3       12 UNK        -0.2522 
     17 C17        26.8799   -4.0488   -5.7947 C.3       12 UNK        -0.0967 
     18 CA         26.1677   -3.4896   -7.0582 C.3       5 UNK         0.0660 
     19 N          24.8376   -2.9782   -6.7333 N.am      5 UNK        -0.4015 
     20 C          23.7133   -3.2552   -7.4101 C.2       4 UNK         0.4946 
     21 O          23.6564   -4.0536   -8.3471 O.2       4 UNK        -0.5353 
     22 CA         22.4191   -2.5374   -6.9759 C.3       4 UNK         0.0277 
     23 CB         21.5435   -3.4755   -6.1284 C.3       4 UNK        -0.1981 
     24 N          22.6694   -1.3095   -6.2213 N.am      4 UNK        -0.4209 
     25 C          23.1467   -0.1715   -6.7441 C.2       3 UNK         0.4942 
     26 O          23.2585    0.0272   -7.9537 O.2       3 UNK        -0.5208 
     27 CA         23.5878    0.9278   -5.7561 C.3       3 UNK         0.0250 
     28 CB         22.6377    2.1348   -5.8260 C.3       3 UNK        -0.1990 
     29 N          23.7066    0.4880   -4.3583 N.am      3 UNK        -0.4232 
     30 C          24.5977   -0.4049   -3.9038 C.2       2 UNK         0.4993 
     31 O          25.3856   -1.0046   -4.6375 O.2       2 UNK        -0.5286 
     32 CA         24.5430   -0.7042   -2.3965 C.3       2 UNK         0.0209 
     33 CB         23.6145   -1.9002   -2.1024 C.3       2 UNK        -0.1931 
     34 N          25.8759   -0.8787   -1.8055 N.am      2 UNK        -0.4546 
     35 C          26.7502   -1.8876   -1.9316 C.2       1 UNK         0.5154 
     36 O          26.5072   -2.9448   -2.5142 O.2       1 UNK        -0.5181 
     37 C          26.9897   -2.3876   -7.7594 C.2       5 UNK         0.5014 
     38 O          26.4922   -1.2892   -8.0221 O.2       5 UNK        -0.5248 
     39 N          28.2639   -2.6994   -8.0281 N.am      6 UNK        -0.4434 
     40 CA         29.2559   -1.8381   -8.6775 C.3       6 UNK         0.0363 
     41 CB         30.5287   -2.6577   -8.9461 C.3       6 UNK        -0.1936 
     42 C          29.6030   -0.5498   -7.9095 C.2       6 UNK         0.5081 
     43 O          30.2944    0.3020   -8.4655 O.2       6 UNK        -0.5248 
     44 N          29.1244   -0.3944   -6.6663 N.am      7 UNK        -0.4718 
     45 CA         29.2929    0.8050   -5.8379 C.3       7 UNK         0.0273 
     46 CB         28.6892    0.5535   -4.4497 C.3       7 UNK        -0.1935 
     47 C          28.7042    2.0783   -6.4730 C.2       7 UNK         0.5018 
     48 O          29.2318    3.1645   -6.2345 O.2       7 UNK        -0.5186 
     49 N          27.6911    1.9174   -7.3389 N.am      8 UNK        -0.4240 
     50 CA         27.1528    2.9693   -8.2092 C.3       8 UNK         0.0235 
     51 CB         25.9142    2.4298   -8.9424 C.3       8 UNK        -0.2000 
     52 C          28.1741    3.5270   -9.2243 C.2       8 UNK         0.4941 
     53 O          28.0111    4.6619   -9.6729 O.2       8 UNK        -0.5273 
     54 N          29.2091    2.7399   -9.5492 N.am      9 UNK        -0.4262 
     55 CA         30.3461    3.1086  -10.3932 C.3       9 UNK         0.0264 
     56 CB         30.4218    2.1219  -11.5736 C.3       9 UNK        -0.1955 
     57 C          31.6524    3.1232   -9.5736 C.2       9 UNK         0.5031 
     58 O          32.7249    2.8934  -10.1368 O.2       9 UNK        -0.5390 
     59 N          31.5462    3.3602   -8.2546 N.am      10 UNK        -0.4204 
     60 CA         32.6347    3.4263   -7.2688 C.3       10 UNK         0.0237 
     61 CB         33.4921    4.6892   -7.5000 C.3       10 UNK        -0.1985 
     62 C          33.4845    2.1405   -7.1759 C.2       10 UNK         0.4970 
     63 O          34.6720    2.2170   -6.8557 O.2       10 UNK        -0.4914 
     64 N          32.8644    0.9855   -7.4533 N.am      11 UNK        -0.4285 
     65 CA         33.4896   -0.3437   -7.5240 C.3       11 UNK         0.1007 
     66 C          34.4126   -0.5576   -8.7624 C.2       11 UNK         0.5703 
     67 N          34.3935    0.3143   -9.7658 N.am      11 UNK        -0.7361 
     68 O          35.1349   -1.5487   -8.8362 O.2       11 UNK        -0.4986 
     69 C69        34.1212   -0.7939   -6.1674 C.3       12 UNK        -0.0947 
     70 S70        33.4664   -2.3900   -5.5735 S.3       12 UNK        -0.2240 
     71 C71        31.9689   -1.8009   -4.7299 C.3       12 UNK         0.0194 
     72 H72        29.1304    2.0600    0.9679 H         1 UNK         0.0906 
     73 H73        29.5290    2.0428   -0.7507 H         1 UNK         0.0906 
     74 H74        27.9848    2.7047   -0.2106 H         1 UNK         0.0906 
     75 H75        29.3235    0.0279   -1.6222 H         1 UNK         0.3140 
     76 H76        28.8279   -2.0153   -2.1148 H         1 UNK         0.1085 
     77 H77        28.1318   -3.6657   -0.3625 H         1 UNK         0.0836 
     78 H78        27.7366   -2.3621    0.7209 H         1 UNK         0.0836 
     79 H79        30.3921   -4.9511    0.0536 H         1 UNK         0.0731 
     80 H80        31.9130   -4.1038   -0.0754 H         1 UNK         0.0731 
     81 H81        32.0822   -2.3257   -2.0620 H         1 UNK         0.1312 
     82 H82        30.2861   -3.7076   -5.6955 H         1 UNK         0.1406 
     83 H83        29.3147   -5.5932   -1.9614 H         1 UNK         0.1631 
     84 H84        27.9059   -5.9882   -3.9236 H         1 UNK         0.0717 
     85 H85        29.3016   -6.7215   -4.6752 H         1 UNK         0.0717 
     86 H86        26.1503   -4.5213   -5.1342 H         1 UNK         0.0934 
     87 H87        27.3382   -3.2549   -5.2001 H         1 UNK         0.0934 
     88 H88        26.0644   -4.3028   -7.7797 H         1 UNK         0.0739 
     89 H89        24.8273   -2.2529   -6.0210 H         1 UNK         0.3093 
     90 H90        21.8680   -2.2773   -7.8823 H         1 UNK         0.0818 
     91 H91        22.0408   -3.7666   -5.2021 H         1 UNK         0.0819 
     92 H92        20.5942   -3.0067   -5.8686 H         1 UNK         0.0819 
     93 H93        21.3114   -4.3909   -6.6746 H         1 UNK         0.0819 
     94 H94        22.5875   -1.3688   -5.2175 H         1 UNK         0.3041 
     95 H95        24.5793    1.2553   -6.0759 H         1 UNK         0.0784 
     96 H96        22.5600    2.5130   -6.8465 H         1 UNK         0.0793 
     97 H97        21.6305    1.8752   -5.4974 H         1 UNK         0.0793 
     98 H98        22.9938    2.9579   -5.2061 H         1 UNK         0.0793 
     99 H99        23.0719    0.9211   -3.7020 H         1 UNK         0.3024 
    100 H100       24.1233    0.1709   -1.8971 H         1 UNK         0.1171 
    101 H101       23.9139   -2.7956   -2.6483 H         1 UNK         0.0786 
    102 H102       22.5873   -1.6768   -2.3927 H         1 UNK         0.0786 
    103 H103       23.6042   -2.1430   -1.0398 H         1 UNK         0.0786 
    104 H104       26.1980   -0.1054   -1.2351 H         1 UNK         0.2977 
    105 H105       28.5789   -3.6221   -7.7550 H         1 UNK         0.3127 
    106 H106       28.8398   -1.5274   -9.6379 H         1 UNK         0.0770 
    107 H107       31.0043   -2.9841   -8.0203 H         1 UNK         0.0814 
    108 H108       31.2619   -2.0706   -9.5012 H         1 UNK         0.0814 
    109 H109       30.3133   -3.5434   -9.5440 H         1 UNK         0.0814 
    110 H110       28.5368   -1.1246   -6.2922 H         1 UNK         0.2983 
    111 H111       30.3649    0.9737   -5.7168 H         1 UNK         0.0947 
    112 H112       29.1423   -0.3173   -3.9772 H         1 UNK         0.0806 
    113 H113       27.6137    0.3863   -4.5029 H         1 UNK         0.0806 
    114 H114       28.8537    1.4077   -3.7916 H         1 UNK         0.0806 
    115 H115       27.3280    0.9820   -7.4775 H         1 UNK         0.3000 
    116 H116       26.8424    3.8007   -7.5728 H         1 UNK         0.0850 
    117 H117       25.4942    3.1826   -9.6111 H         1 UNK         0.0810 
    118 H118       25.1275    2.1499   -8.2429 H         1 UNK         0.0810 
    119 H119       26.1517    1.5522   -9.5454 H         1 UNK         0.0810 
    120 H120       29.2903    1.8263   -9.1115 H         1 UNK         0.3040 
    121 H121       30.2144    4.1152  -10.7947 H         1 UNK         0.0766 
    122 H122       29.4909    2.1104  -12.1405 H         1 UNK         0.0812 
    123 H123       30.6204    1.1046  -11.2331 H         1 UNK         0.0812 
    124 H124       31.2177    2.3967  -12.2670 H         1 UNK         0.0812 
    125 H125       30.6176    3.5009   -7.8722 H         1 UNK         0.3205 
    126 H126       32.1514    3.5315   -6.2963 H         1 UNK         0.0754 
    127 H127       34.2144    4.8282   -6.6946 H         1 UNK         0.0769 
    128 H128       32.8746    5.5868   -7.5354 H         1 UNK         0.0769 
    129 H129       34.0527    4.6307   -8.4337 H         1 UNK         0.0769 
    130 H130       31.8998    1.0092   -7.7724 H         1 UNK         0.2981 
    131 H131       32.6467   -1.0005   -7.7314 H         1 UNK         0.0541 
    132 H132       33.8024    1.1373   -9.7371 H         1 UNK         0.3459 
    133 H133       34.9869    0.1545  -10.5638 H         1 UNK         0.3459 
    134 H134       35.2074   -0.8736   -6.2368 H         1 UNK         0.0612 
    135 H135       33.9499   -0.0542   -5.3843 H         1 UNK         0.0612 
    136 H136       31.2967   -1.3796   -5.4739 H         1 UNK         0.0624 
    137 H137       32.2276   -0.9847   -4.0536 H         1 UNK         0.0624 
@<TRIPOS>BOND
     1    1    2 1    
     2    1   72 1    
     3    1   73 1    
     4    1   74 1    
     5    2    3 2    
     6    2    4 am   BACKBONE|DICT|INTERRES
     7    4    5 1    
     8    4   75 1    
     9    5    6 1    
    10    5   35 1    
    11    5   76 1    
    12    6    7 1    
    13    6   77 1    
    14    6   78 1    
    15    7    8 1    
    16    8    9 1    
    17    8   79 1    
    18    8   80 1    
    19    9   10 ar   
    20    9   14 ar   
    21   10   11 ar   
    22   10   81 1    
    23   11   12 ar   
    24   11   71 1    
    25   12   13 ar   
    26   12   82 1    
    27   13   14 ar   
    28   13   15 1    
    29   14   83 1    
    30   15   16 1    
    31   15   84 1    
    32   15   85 1    
    33   16   17 1    
    34   17   18 1    
    35   17   86 1    
    36   17   87 1    
    37   18   19 1    
    38   18   37 1    
    39   18   88 1    
    40   19   20 am   BACKBONE|DICT|INTERRES
    41   19   89 1    
    42   20   21 2    
    43   20   22 1    
    44   22   23 1    
    45   22   24 1    
    46   22   90 1    
    47   23   91 1    
    48   23   92 1    
    49   23   93 1    
    50   24   25 am   BACKBONE|DICT|INTERRES
    51   24   94 1    
    52   25   26 2    
    53   25   27 1    
    54   27   28 1    
    55   27   29 1    
    56   27   95 1    
    57   28   96 1    
    58   28   97 1    
    59   28   98 1    
    60   29   30 am   BACKBONE|DICT|INTERRES
    61   29   99 1    
    62   30   31 2    
    63   30   32 1    
    64   32   33 1    
    65   32   34 1    
    66   32  100 1    
    67   33  101 1    
    68   33  102 1    
    69   33  103 1    
    70   34   35 am   BACKBONE|DICT|INTERRES
    71   34  104 1    
    72   35   36 2    
    73   37   38 2    
    74   37   39 am   BACKBONE|DICT|INTERRES
    75   39   40 1    
    76   39  105 1    
    77   40   41 1    
    78   40   42 1    
    79   40  106 1    
    80   41  107 1    
    81   41  108 1    
    82   41  109 1    
    83   42   43 2    
    84   42   44 am   BACKBONE|DICT|INTERRES
    85   44   45 1    
    86   44  110 1    
    87   45   46 1    
    88   45   47 1    
    89   45  111 1    
    90   46  112 1    
    91   46  113 1    
    92   46  114 1    
    93   47   48 2    
    94   47   49 am   BACKBONE|DICT|INTERRES
    95   49   50 1    
    96   49  115 1    
    97   50   51 1    
    98   50   52 1    
    99   50  116 1    
   100   51  117 1    
   101   51  118 1    
   102   51  119 1    
   103   52   53 2    
   104   52   54 am   BACKBONE|DICT|INTERRES
   105   54   55 1    
   106   54  120 1    
   107   55   56 1    
   108   55   57 1    
   109   55  121 1    
   110   56  122 1    
   111   56  123 1    
   112   56  124 1    
   113   57   58 2    
   114   57   59 am   BACKBONE|DICT|INTERRES
   115   59   60 1    
   116   59  125 1    
   117   60   61 1    
   118   60   62 1    
   119   60  126 1    
   120   61  127 1    
   121   61  128 1    
   122   61  129 1    
   123   62   63 2    
   124   62   64 am   BACKBONE|DICT|INTERRES
   125   64   65 1    
   126   64  130 1    
   127   65   66 1    
   128   65   69 1    
   129   65  131 1    
   130   66   67 am   BACKBONE|DICT|INTERRES
   131   66   68 2    
   132   67  132 1    
   133   67  133 1    
   134   69   70 1    
   135   69  134 1    
   136   69  135 1    
   137   70   71 1    
   138   71  136 1    
   139   71  137 1    
@<TRIPOS>SUBSTRUCTURE
     1 UNK         1 GROUP             0       ****    0 ROOT    
