@<TRIPOS>MOLECULE
3R137
137   139    1
SMALL
USER_CHARGES


@<TRIPOS>ATOM
      1 CA         23.9202   -5.6544   -4.1947 C.3       0 UNK        -0.2020 
      2 C          24.3971   -4.8267   -3.0117 C.2       0 UNK         0.4855 
      3 O          23.6105   -4.0767   -2.4331 O.2       0 UNK        -0.5197 
      4 N          25.6805   -4.9445   -2.6482 N.am      1 UNK        -0.4892 
      5 CA         26.3112   -4.2000   -1.5539 C.3       1 UNK         0.0835 
      6 C6         27.7209   -4.7370   -1.2008 C.3       12 UNK        -0.0855 
      7 S7         28.8478   -4.9367   -2.6286 S.3       12 UNK        -0.2931 
      8 C8         30.4638   -4.5666   -1.8762 C.3       12 UNK         0.0378 
      9 C9         31.0931   -3.3212   -2.4813 C.ar      12 UNK        -0.0802 
     10 C10        32.0824   -3.4487   -3.4595 C.ar      12 UNK        -0.0944 
     11 C11        32.7040   -2.3180   -3.9946 C.ar      12 UNK        -0.0787 
     12 C12        32.3259   -1.0478   -3.5489 C.ar      12 UNK        -0.0862 
     13 C13        31.3332   -0.9052   -2.5727 C.ar      12 UNK        -0.0733 
     14 C14        30.7171   -2.0465   -2.0449 C.ar      12 UNK        -0.0832 
     15 C15        30.9654    0.4791   -2.0523 C.3       12 UNK         0.0240 
     16 S16        30.1627    1.5219   -3.3120 S.3       12 UNK        -0.2522 
     17 C17        28.5321    0.7279   -3.4825 C.3       12 UNK        -0.0967 
     18 CA         28.0768    0.6191   -4.9604 C.3       5 UNK         0.0660 
     19 N          27.1702   -0.5147   -5.1536 N.am      5 UNK        -0.4015 
     20 C          26.6708   -0.9247   -6.3281 C.2       4 UNK         0.4946 
     21 O          26.9645   -0.4334   -7.4178 O.2       4 UNK        -0.5353 
     22 CA         25.6148   -2.0381   -6.2659 C.3       4 UNK         0.0277 
     23 CB         26.2764   -3.4198   -6.1375 C.3       4 UNK        -0.1981 
     24 N          24.6654   -1.8198   -5.1702 N.am      4 UNK        -0.4209 
     25 C          23.7562   -0.8330   -5.1539 C.2       3 UNK         0.4942 
     26 O          23.5767   -0.0551   -6.0893 O.2       3 UNK        -0.5208 
     27 CA         22.9401   -0.6494   -3.8645 C.3       3 UNK         0.0250 
     28 CB         21.7095   -1.5697   -3.8607 C.3       3 UNK        -0.1990 
     29 N          23.7417   -0.8695   -2.6576 N.am      3 UNK        -0.4232 
     30 C          24.7204   -0.0435   -2.2547 C.2       2 UNK         0.4993 
     31 O          25.0187    0.9947   -2.8420 O.2       2 UNK        -0.5286 
     32 CA         25.5467   -0.4597   -1.0248 C.3       2 UNK         0.0209 
     33 CB         24.9101    0.0891    0.2616 C.3       2 UNK        -0.1931 
     34 N          25.7346   -1.9079   -0.9007 N.am      2 UNK        -0.4546 
     35 C          26.3059   -2.6835   -1.8323 C.2       1 UNK         0.5154 
     36 O          26.7646   -2.2468   -2.8909 O.2       1 UNK        -0.5181 
     37 C          27.4642    1.9419   -5.4754 C.2       5 UNK         0.5014 
     38 O          28.1217    2.6712   -6.2183 O.2       5 UNK        -0.5248 
     39 N          26.2026    2.2115   -5.1067 N.am      6 UNK        -0.4434 
     40 CA         25.4310    3.3647   -5.5757 C.3       6 UNK         0.0363 
     41 CB         24.1155    3.4624   -4.7871 C.3       6 UNK        -0.1936 
     42 C          25.1507    3.3359   -7.0882 C.2       6 UNK         0.5081 
     43 O          25.1787    4.3924   -7.7206 O.2       6 UNK        -0.5248 
     44 N          24.8825    2.1434   -7.6394 N.am      7 UNK        -0.4718 
     45 CA         24.6408    1.9301   -9.0663 C.3       7 UNK         0.0273 
     46 CB         24.0360    0.5360   -9.3005 C.3       7 UNK        -0.1935 
     47 C          25.9014    2.1363   -9.9204 C.2       7 UNK         0.5018 
     48 O          25.8544    2.9217  -10.8689 O.2       7 UNK        -0.5186 
     49 N          26.9948    1.4374   -9.5845 N.am      8 UNK        -0.4240 
     50 CA         28.2498    1.4729  -10.3331 C.3       8 UNK         0.0235 
     51 CB         28.0960    0.7482  -11.6898 C.3       8 UNK        -0.2000 
     52 C          29.3856    0.8652   -9.5016 C.2       8 UNK         0.4941 
     53 O          29.6858   -0.3224   -9.6487 O.2       8 UNK        -0.5273 
     54 N          30.0503    1.6921   -8.6840 N.am      9 UNK        -0.4262 
     55 CA         31.2847    1.3496   -7.9646 C.3       9 UNK         0.0264 
     56 CB         31.4997    2.3480   -6.8123 C.3       9 UNK        -0.1955 
     57 C          32.5058    1.2872   -8.9086 C.2       9 UNK         0.5031 
     58 O          33.4656    2.0399   -8.7318 O.2       9 UNK        -0.5390 
     59 N          32.4384    0.4073   -9.9156 N.am      10 UNK        -0.4204 
     60 CA         33.5088    0.1539  -10.8851 C.3       10 UNK         0.0237 
     61 CB         32.9180   -0.5555  -12.1144 C.3       10 UNK        -0.1985 
     62 C          34.6639   -0.6681  -10.2865 C.2       10 UNK         0.4970 
     63 O          35.7984   -0.5505  -10.7513 O.2       10 UNK        -0.4914 
     64 N          34.3478   -1.4844   -9.2755 N.am      11 UNK        -0.4285 
     65 CA         35.2885   -2.2578   -8.4600 C.3       11 UNK         0.1007 
     66 C          36.2222   -1.3751   -7.5845 C.2       11 UNK         0.5703 
     67 N          37.3903   -1.8873   -7.2206 N.am      11 UNK        -0.7361 
     68 O          35.8903   -0.2544   -7.2035 O.2       11 UNK        -0.4986 
     69 C69        34.5406   -3.3294   -7.6211 C.3       12 UNK        -0.0947 
     70 S70        33.0930   -2.7013   -6.6947 S.3       12 UNK        -0.2240 
     71 C71        33.7992   -2.4841   -5.0352 C.3       12 UNK         0.0194 
     72 H72        23.1646   -6.3689   -3.8697 H         1 UNK         0.0906 
     73 H73        23.4735   -5.0080   -4.9497 H         1 UNK         0.0906 
     74 H74        24.7352   -6.2090   -4.6594 H         1 UNK         0.0906 
     75 H75        26.3068   -5.5380   -3.1747 H         1 UNK         0.3140 
     76 H76        25.6859   -4.3689   -0.6740 H         1 UNK         0.1085 
     77 H77        27.6221   -5.7166   -0.7303 H         1 UNK         0.0836 
     78 H78        28.1803   -4.0985   -0.4441 H         1 UNK         0.0836 
     79 H79        31.1164   -5.4282   -2.0263 H         1 UNK         0.0731 
     80 H80        30.3810   -4.4491   -0.7952 H         1 UNK         0.0731 
     81 H81        32.3775   -4.4316   -3.8014 H         1 UNK         0.1312 
     82 H82        32.8077   -0.1686   -3.9550 H         1 UNK         0.1406 
     83 H83        29.9537   -1.9476   -1.2852 H         1 UNK         0.1631 
     84 H84        31.8740    0.9799   -1.7152 H         1 UNK         0.0717 
     85 H85        30.3155    0.4106   -1.1785 H         1 UNK         0.0717 
     86 H86        28.5987   -0.2687   -3.0447 H         1 UNK         0.0934 
     87 H87        27.8058    1.2679   -2.8725 H         1 UNK         0.0934 
     88 H88        28.9518    0.4041   -5.5782 H         1 UNK         0.0739 
     89 H89        26.9123   -1.0357   -4.3184 H         1 UNK         0.3093 
     90 H90        25.0581   -2.0190   -7.2053 H         1 UNK         0.0818 
     91 H91        26.9971   -3.5793   -6.9408 H         1 UNK         0.0819 
     92 H92        26.8135   -3.5343   -5.1956 H         1 UNK         0.0819 
     93 H93        25.5398   -4.2189   -6.2070 H         1 UNK         0.0819 
     94 H94        24.7915   -2.3737   -4.3348 H         1 UNK         0.3041 
     95 H95        22.5845    0.3832   -3.8445 H         1 UNK         0.0784 
     96 H96        21.0667   -1.3589   -4.7165 H         1 UNK         0.0793 
     97 H97        21.9860   -2.6226   -3.9167 H         1 UNK         0.0793 
     98 H98        21.1087   -1.4271   -2.9623 H         1 UNK         0.0793 
     99 H99        23.5840   -1.7321   -2.1513 H         1 UNK         0.3024 
    100 H100       26.5357   -0.0103   -1.1342 H         1 UNK         0.1171 
    101 H101       25.5362   -0.1103    1.1316 H         1 UNK         0.0786 
    102 H102       24.7795    1.1707    0.2008 H         1 UNK         0.0786 
    103 H103       23.9278   -0.3477    0.4458 H         1 UNK         0.0786 
    104 H104       25.3635   -2.3389   -0.0658 H         1 UNK         0.2977 
    105 H105       25.7431    1.6058   -4.4287 H         1 UNK         0.3127 
    106 H106       26.0190    4.2610   -5.3673 H         1 UNK         0.0770 
    107 H107       23.4961    2.5757   -4.9269 H         1 UNK         0.0814 
    108 H108       23.5300    4.3249   -5.1082 H         1 UNK         0.0814 
    109 H109       24.3008    3.5759   -3.7188 H         1 UNK         0.0814 
    110 H110       24.8135    1.3293   -7.0379 H         1 UNK         0.2983 
    111 H111       23.9032    2.6677   -9.3906 H         1 UNK         0.0947 
    112 H112       24.6983   -0.2582   -8.9563 H         1 UNK         0.0806 
    113 H113       23.8462    0.3659  -10.3611 H         1 UNK         0.0806 
    114 H114       23.0846    0.4256   -8.7800 H         1 UNK         0.0806 
    115 H115       26.9686    0.8125   -8.7769 H         1 UNK         0.3000 
    116 H116       28.5081    2.5152  -10.5329 H         1 UNK         0.0850 
    117 H117       29.0498    0.6984  -12.2169 H         1 UNK         0.0810 
    118 H118       27.3962    1.2633  -12.3475 H         1 UNK         0.0810 
    119 H119       27.7407   -0.2749  -11.5602 H         1 UNK         0.0810 
    120 H120       29.7289    2.6456   -8.5908 H         1 UNK         0.3040 
    121 H121       31.1660    0.3577   -7.5223 H         1 UNK         0.0766 
    122 H122       30.6688    2.3307   -6.1108 H         1 UNK         0.0812 
    123 H123       31.6096    3.3704   -7.1755 H         1 UNK         0.0812 
    124 H124       32.3980    2.1024   -6.2441 H         1 UNK         0.0812 
    125 H125       31.5803   -0.1329  -10.0036 H         1 UNK         0.3205 
    126 H126       33.9184    1.1138  -11.2071 H         1 UNK         0.0754 
    127 H127       33.6866   -0.7377  -12.8669 H         1 UNK         0.0769 
    128 H128       32.1415    0.0481  -12.5851 H         1 UNK         0.0769 
    129 H129       32.4806   -1.5203  -11.8535 H         1 UNK         0.0769 
    130 H130       33.3942   -1.4922   -8.9472 H         1 UNK         0.2981 
    131 H131       35.9360   -2.7894   -9.1603 H         1 UNK         0.0541 
    132 H132       38.0061   -1.3369   -6.6427 H         1 UNK         0.3459 
    133 H133       37.6731   -2.8086   -7.5168 H         1 UNK         0.3459 
    134 H134       34.1675   -4.1018   -8.2952 H         1 UNK         0.0612 
    135 H135       35.2227   -3.8492   -6.9460 H         1 UNK         0.0612 
    136 H136       34.4132   -3.3487   -4.7786 H         1 UNK         0.0624 
    137 H137       34.4641   -1.6192   -5.0347 H         1 UNK         0.0624 
@<TRIPOS>BOND
     1    1    2 1    
     2    1   72 1    
     3    1   73 1    
     4    1   74 1    
     5    2    3 2    
     6    2    4 am   BACKBONE|DICT|INTERRES
     7    4    5 1    
     8    4   75 1    
     9    5    6 1    
    10    5   35 1    
    11    5   76 1    
    12    6    7 1    
    13    6   77 1    
    14    6   78 1    
    15    7    8 1    
    16    8    9 1    
    17    8   79 1    
    18    8   80 1    
    19    9   10 ar   
    20    9   14 ar   
    21   10   11 ar   
    22   10   81 1    
    23   11   12 ar   
    24   11   71 1    
    25   12   13 ar   
    26   12   82 1    
    27   13   14 ar   
    28   13   15 1    
    29   14   83 1    
    30   15   16 1    
    31   15   84 1    
    32   15   85 1    
    33   16   17 1    
    34   17   18 1    
    35   17   86 1    
    36   17   87 1    
    37   18   19 1    
    38   18   37 1    
    39   18   88 1    
    40   19   20 am   BACKBONE|DICT|INTERRES
    41   19   89 1    
    42   20   21 2    
    43   20   22 1    
    44   22   23 1    
    45   22   24 1    
    46   22   90 1    
    47   23   91 1    
    48   23   92 1    
    49   23   93 1    
    50   24   25 am   BACKBONE|DICT|INTERRES
    51   24   94 1    
    52   25   26 2    
    53   25   27 1    
    54   27   28 1    
    55   27   29 1    
    56   27   95 1    
    57   28   96 1    
    58   28   97 1    
    59   28   98 1    
    60   29   30 am   BACKBONE|DICT|INTERRES
    61   29   99 1    
    62   30   31 2    
    63   30   32 1    
    64   32   33 1    
    65   32   34 1    
    66   32  100 1    
    67   33  101 1    
    68   33  102 1    
    69   33  103 1    
    70   34   35 am   BACKBONE|DICT|INTERRES
    71   34  104 1    
    72   35   36 2    
    73   37   38 2    
    74   37   39 am   BACKBONE|DICT|INTERRES
    75   39   40 1    
    76   39  105 1    
    77   40   41 1    
    78   40   42 1    
    79   40  106 1    
    80   41  107 1    
    81   41  108 1    
    82   41  109 1    
    83   42   43 2    
    84   42   44 am   BACKBONE|DICT|INTERRES
    85   44   45 1    
    86   44  110 1    
    87   45   46 1    
    88   45   47 1    
    89   45  111 1    
    90   46  112 1    
    91   46  113 1    
    92   46  114 1    
    93   47   48 2    
    94   47   49 am   BACKBONE|DICT|INTERRES
    95   49   50 1    
    96   49  115 1    
    97   50   51 1    
    98   50   52 1    
    99   50  116 1    
   100   51  117 1    
   101   51  118 1    
   102   51  119 1    
   103   52   53 2    
   104   52   54 am   BACKBONE|DICT|INTERRES
   105   54   55 1    
   106   54  120 1    
   107   55   56 1    
   108   55   57 1    
   109   55  121 1    
   110   56  122 1    
   111   56  123 1    
   112   56  124 1    
   113   57   58 2    
   114   57   59 am   BACKBONE|DICT|INTERRES
   115   59   60 1    
   116   59  125 1    
   117   60   61 1    
   118   60   62 1    
   119   60  126 1    
   120   61  127 1    
   121   61  128 1    
   122   61  129 1    
   123   62   63 2    
   124   62   64 am   BACKBONE|DICT|INTERRES
   125   64   65 1    
   126   64  130 1    
   127   65   66 1    
   128   65   69 1    
   129   65  131 1    
   130   66   67 am   BACKBONE|DICT|INTERRES
   131   66   68 2    
   132   67  132 1    
   133   67  133 1    
   134   69   70 1    
   135   69  134 1    
   136   69  135 1    
   137   70   71 1    
   138   71  136 1    
   139   71  137 1    
@<TRIPOS>SUBSTRUCTURE
     1 UNK         1 GROUP             0       ****    0 ROOT    
