@<TRIPOS>MOLECULE
3R137
137   139    1
SMALL
USER_CHARGES


@<TRIPOS>ATOM
      1 CA         28.7117   -0.0402    2.7090 C.3       0 UNK        -0.2020 
      2 C          28.0267    0.4806    1.4545 C.2       0 UNK         0.4855 
      3 O          27.3625    1.5160    1.5045 O.2       0 UNK        -0.5197 
      4 N          28.1831   -0.2293    0.3292 N.am      1 UNK        -0.4892 
      5 CA         27.6024    0.1272   -0.9742 C.3       1 UNK         0.0835 
      6 C6         28.2662   -0.6494   -2.1414 C.3       12 UNK        -0.0855 
      7 S7         30.0706   -0.3787   -2.2403 S.3       12 UNK        -0.2931 
      8 C8         30.7374   -1.9952   -1.7220 C.3       12 UNK         0.0378 
      9 C9         30.9975   -2.9168   -2.9072 C.ar      12 UNK        -0.0802 
     10 C10        32.3052   -3.1434   -3.3488 C.ar      12 UNK        -0.0944 
     11 C11        32.5569   -4.0097   -4.4175 C.ar      12 UNK        -0.0787 
     12 C12        31.4857   -4.6403   -5.0595 C.ar      12 UNK        -0.0862 
     13 C13        30.1729   -4.4106   -4.6367 C.ar      12 UNK        -0.0733 
     14 C14        29.9382   -3.5631   -3.5503 C.ar      12 UNK        -0.0832 
     15 C15        29.0020   -5.0734   -5.3506 C.3       12 UNK         0.0240 
     16 S16        28.6590   -4.3136   -6.9719 S.3       12 UNK        -0.2522 
     17 C17        28.5400   -2.5420   -6.5550 C.3       12 UNK        -0.0967 
     18 CA         27.5906   -1.7709   -7.5008 C.3       5 UNK         0.0660 
     19 N          26.2049   -2.2248   -7.3478 N.am      5 UNK        -0.4015 
     20 C          25.1108   -1.6998   -7.9187 C.2       4 UNK         0.4946 
     21 O          25.1382   -0.8030   -8.7621 O.2       4 UNK        -0.5353 
     22 CA         23.7492   -2.2143   -7.4122 C.3       4 UNK         0.0277 
     23 CB         23.1580   -3.2263   -8.4067 C.3       4 UNK        -0.1981 
     24 N          23.7778   -2.8129   -6.0680 N.am      4 UNK        -0.4209 
     25 C          24.1970   -2.2064   -4.9470 C.2       3 UNK         0.4942 
     26 O          24.6506   -1.0588   -4.9093 O.2       3 UNK        -0.5208 
     27 CA         24.1795   -3.0571   -3.6737 C.3       3 UNK         0.0250 
     28 CB         25.3834   -4.0206   -3.6566 C.3       3 UNK        -0.1990 
     29 N          24.2379   -2.1729   -2.5143 N.am      3 UNK        -0.4232 
     30 C          23.9001   -2.4938   -1.2605 C.2       2 UNK         0.4993 
     31 O          23.4529   -3.5965   -0.9386 O.2       2 UNK        -0.5286 
     32 CA         24.1445   -1.4148   -0.1856 C.3       2 UNK         0.0209 
     33 CB         23.7686   -1.8869    1.2320 C.3       2 UNK        -0.1931 
     34 N          25.5474   -0.9896   -0.1852 N.am      2 UNK        -0.4546 
     35 C          26.0734   -0.0802   -1.0172 C.2       1 UNK         0.5154 
     36 O          25.3974    0.5516   -1.8282 O.2       1 UNK        -0.5181 
     37 C          27.7722   -0.2547   -7.2772 C.2       5 UNK         0.5014 
     38 O          28.6207    0.3460   -7.9381 O.2       5 UNK        -0.5248 
     39 N          26.9633    0.3468   -6.3899 N.am      6 UNK        -0.4434 
     40 CA         26.9696    1.7804   -6.0860 C.3       6 UNK         0.0363 
     41 CB         26.0304    2.0504   -4.9029 C.3       6 UNK        -0.1936 
     42 C          26.6118    2.6945   -7.2732 C.2       6 UNK         0.5081 
     43 O          26.9581    3.8748   -7.2310 O.2       6 UNK        -0.5248 
     44 N          25.9566    2.1554   -8.3140 N.am      7 UNK        -0.4718 
     45 CA         25.6731    2.8759   -9.5597 C.3       7 UNK         0.0273 
     46 CB         24.6560    2.0833  -10.3955 C.3       7 UNK        -0.1935 
     47 C          26.9430    3.1625  -10.3820 C.2       7 UNK         0.5018 
     48 O          27.0148    4.2053  -11.0333 O.2       7 UNK        -0.5186 
     49 N          27.9182    2.2447  -10.3253 N.am      8 UNK        -0.4240 
     50 CA         29.2392    2.3929  -10.9422 C.3       8 UNK         0.0235 
     51 CB         29.6634    1.0444  -11.5436 C.3       8 UNK        -0.2000 
     52 C          30.2947    2.8869   -9.9382 C.2       8 UNK         0.4941 
     53 O          31.3208    3.4198  -10.3623 O.2       8 UNK        -0.5273 
     54 N          30.0498    2.6749   -8.6364 N.am      9 UNK        -0.4262 
     55 CA         30.8710    2.9983   -7.4626 C.3       9 UNK         0.0264 
     56 CB         31.1902    4.5029   -7.3721 C.3       9 UNK        -0.1955 
     57 C          32.1381    2.1371   -7.3456 C.2       9 UNK         0.5031 
     58 O          32.3917    1.5767   -6.2786 O.2       9 UNK        -0.5390 
     59 N          32.8903    2.0021   -8.4430 N.am      10 UNK        -0.4204 
     60 CA         34.0867    1.1678   -8.5681 C.3       10 UNK         0.0237 
     61 CB         34.9499    1.7149   -9.7209 C.3       10 UNK        -0.1985 
     62 C          33.7299   -0.3226   -8.7445 C.2       10 UNK         0.4970 
     63 O          34.1039   -0.9272   -9.7512 O.2       10 UNK        -0.4914 
     64 N          33.0042   -0.8783   -7.7649 N.am      11 UNK        -0.4285 
     65 CA         32.5473   -2.2786   -7.7031 C.3       11 UNK         0.1007 
     66 C          31.5953   -2.6824   -8.8698 C.2       11 UNK         0.5703 
     67 N          30.7296   -1.7869   -9.3283 N.am      11 UNK        -0.7361 
     68 O          31.6261   -3.8084   -9.3613 O.2       11 UNK        -0.4986 
     69 C69        33.7155   -3.2837   -7.4883 C.3       12 UNK        -0.0947 
     70 S70        34.6339   -2.9663   -5.9445 S.3       12 UNK        -0.2240 
     71 C71        33.9897   -4.2778   -4.8580 C.3       12 UNK         0.0194 
     72 H72        27.9723   -0.2430    3.4834 H         1 UNK         0.0906 
     73 H73        29.4097    0.7042    3.0913 H         1 UNK         0.0906 
     74 H74        29.2666   -0.9591    2.5208 H         1 UNK         0.0906 
     75 H75        28.7633   -1.0553    0.3408 H         1 UNK         0.3140 
     76 H76        27.7771    1.1935   -1.1367 H         1 UNK         0.1085 
     77 H77        27.8403   -0.3374   -3.0976 H         1 UNK         0.0836 
     78 H78        28.0504   -1.7142   -2.0525 H         1 UNK         0.0836 
     79 H79        31.6654   -1.8204   -1.1753 H         1 UNK         0.0731 
     80 H80        30.0633   -2.4790   -1.0141 H         1 UNK         0.0731 
     81 H81        33.1331   -2.6525   -2.8553 H         1 UNK         0.1312 
     82 H82        31.6693   -5.3043   -5.8932 H         1 UNK         0.1406 
     83 H83        28.9257   -3.4019   -3.2123 H         1 UNK         0.1631 
     84 H84        28.0999   -5.0292   -4.7391 H         1 UNK         0.0717 
     85 H85        29.2177   -6.1328   -5.4961 H         1 UNK         0.0717 
     86 H86        28.2083   -2.4303   -5.5212 H         1 UNK         0.0934 
     87 H87        29.5500   -2.1307   -6.5920 H         1 UNK         0.0934 
     88 H88        27.8803   -1.9742   -8.5334 H         1 UNK         0.0739 
     89 H89        26.0681   -2.9812   -6.6953 H         1 UNK         0.3093 
     90 H90        23.0832   -1.3501   -7.3661 H         1 UNK         0.0818 
     91 H91        23.0998   -2.7998   -9.4093 H         1 UNK         0.0819 
     92 H92        23.7646   -4.1305   -8.4725 H         1 UNK         0.0819 
     93 H93        22.1464   -3.5183   -8.1238 H         1 UNK         0.0819 
     94 H94        23.4366   -3.7615   -5.9987 H         1 UNK         0.3041 
     95 H95        23.2462   -3.6236   -3.6453 H         1 UNK         0.0784 
     96 H96        25.3721   -4.6880   -4.5192 H         1 UNK         0.0793 
     97 H97        26.3293   -3.4781   -3.6725 H         1 UNK         0.0793 
     98 H98        25.3772   -4.6510   -2.7673 H         1 UNK         0.0793 
     99 H99        24.5608   -1.2303   -2.7176 H         1 UNK         0.3024 
    100 H100       23.5062   -0.5631   -0.4330 H         1 UNK         0.1171 
    101 H101       24.3621   -2.7475    1.5434 H         1 UNK         0.0786 
    102 H102       23.9169   -1.0941    1.9655 H         1 UNK         0.0786 
    103 H103       22.7186   -2.1787    1.2813 H         1 UNK         0.0786 
    104 H104       26.1722   -1.4808    0.4376 H         1 UNK         0.2977 
    105 H105       26.2588   -0.2072   -5.9114 H         1 UNK         0.3127 
    106 H106       27.9834    2.0429   -5.7774 H         1 UNK         0.0770 
    107 H107       26.3599    1.5129   -4.0159 H         1 UNK         0.0814 
    108 H108       26.0105    3.1106   -4.6469 H         1 UNK         0.0814 
    109 H109       25.0060    1.7453   -5.1204 H         1 UNK         0.0814 
    110 H110       25.6996    1.1736   -8.2853 H         1 UNK         0.2983 
    111 H111       25.2245    3.8376   -9.3001 H         1 UNK         0.0947 
    112 H112       25.0534    1.1161  -10.7055 H         1 UNK         0.0806 
    113 H113       24.3856    2.6293  -11.3003 H         1 UNK         0.0806 
    114 H114       23.7367    1.9037   -9.8377 H         1 UNK         0.0806 
    115 H115       27.7741    1.4267   -9.7469 H         1 UNK         0.3000 
    116 H116       29.1952    3.1245  -11.7520 H         1 UNK         0.0850 
    117 H117       30.6608    1.1037  -11.9819 H         1 UNK         0.0810 
    118 H118       28.9804    0.7330  -12.3341 H         1 UNK         0.0810 
    119 H119       29.6815    0.2584  -10.7904 H         1 UNK         0.0810 
    120 H120       29.2492    2.0891   -8.4194 H         1 UNK         0.3040 
    121 H121       30.2490    2.7491   -6.6015 H         1 UNK         0.0766 
    122 H122       31.7047    4.7335   -6.4385 H         1 UNK         0.0812 
    123 H123       30.2789    5.1006   -7.3966 H         1 UNK         0.0812 
    124 H124       31.8337    4.8383   -8.1857 H         1 UNK         0.0812 
    125 H125       32.5691    2.4845   -9.2797 H         1 UNK         0.3205 
    126 H126       34.6703    1.2512   -7.6487 H         1 UNK         0.0754 
    127 H127       35.8716    1.1411   -9.8274 H         1 UNK         0.0769 
    128 H128       35.2352    2.7522   -9.5441 H         1 UNK         0.0769 
    129 H129       34.4234    1.6707  -10.6754 H         1 UNK         0.0769 
    130 H130       32.7313   -0.2822   -6.9902 H         1 UNK         0.2981 
    131 H131       31.9189   -2.3358   -6.8148 H         1 UNK         0.0541 
    132 H132       30.6636   -0.8699   -8.9163 H         1 UNK         0.3459 
    133 H133       30.1203   -2.0499  -10.0850 H         1 UNK         0.3459 
    134 H134       34.4177   -3.2397   -8.3219 H         1 UNK         0.0612 
    135 H135       33.3459   -4.3098   -7.4665 H         1 UNK         0.0612 
    136 H136       34.6312   -4.3452   -3.9782 H         1 UNK         0.0624 
    137 H137       34.0668   -5.2431   -5.3608 H         1 UNK         0.0624 
@<TRIPOS>BOND
     1    1    2 1    
     2    1   72 1    
     3    1   73 1    
     4    1   74 1    
     5    2    3 2    
     6    2    4 am   BACKBONE|DICT|INTERRES
     7    4    5 1    
     8    4   75 1    
     9    5    6 1    
    10    5   35 1    
    11    5   76 1    
    12    6    7 1    
    13    6   77 1    
    14    6   78 1    
    15    7    8 1    
    16    8    9 1    
    17    8   79 1    
    18    8   80 1    
    19    9   10 ar   
    20    9   14 ar   
    21   10   11 ar   
    22   10   81 1    
    23   11   12 ar   
    24   11   71 1    
    25   12   13 ar   
    26   12   82 1    
    27   13   14 ar   
    28   13   15 1    
    29   14   83 1    
    30   15   16 1    
    31   15   84 1    
    32   15   85 1    
    33   16   17 1    
    34   17   18 1    
    35   17   86 1    
    36   17   87 1    
    37   18   19 1    
    38   18   37 1    
    39   18   88 1    
    40   19   20 am   BACKBONE|DICT|INTERRES
    41   19   89 1    
    42   20   21 2    
    43   20   22 1    
    44   22   23 1    
    45   22   24 1    
    46   22   90 1    
    47   23   91 1    
    48   23   92 1    
    49   23   93 1    
    50   24   25 am   BACKBONE|DICT|INTERRES
    51   24   94 1    
    52   25   26 2    
    53   25   27 1    
    54   27   28 1    
    55   27   29 1    
    56   27   95 1    
    57   28   96 1    
    58   28   97 1    
    59   28   98 1    
    60   29   30 am   BACKBONE|DICT|INTERRES
    61   29   99 1    
    62   30   31 2    
    63   30   32 1    
    64   32   33 1    
    65   32   34 1    
    66   32  100 1    
    67   33  101 1    
    68   33  102 1    
    69   33  103 1    
    70   34   35 am   BACKBONE|DICT|INTERRES
    71   34  104 1    
    72   35   36 2    
    73   37   38 2    
    74   37   39 am   BACKBONE|DICT|INTERRES
    75   39   40 1    
    76   39  105 1    
    77   40   41 1    
    78   40   42 1    
    79   40  106 1    
    80   41  107 1    
    81   41  108 1    
    82   41  109 1    
    83   42   43 2    
    84   42   44 am   BACKBONE|DICT|INTERRES
    85   44   45 1    
    86   44  110 1    
    87   45   46 1    
    88   45   47 1    
    89   45  111 1    
    90   46  112 1    
    91   46  113 1    
    92   46  114 1    
    93   47   48 2    
    94   47   49 am   BACKBONE|DICT|INTERRES
    95   49   50 1    
    96   49  115 1    
    97   50   51 1    
    98   50   52 1    
    99   50  116 1    
   100   51  117 1    
   101   51  118 1    
   102   51  119 1    
   103   52   53 2    
   104   52   54 am   BACKBONE|DICT|INTERRES
   105   54   55 1    
   106   54  120 1    
   107   55   56 1    
   108   55   57 1    
   109   55  121 1    
   110   56  122 1    
   111   56  123 1    
   112   56  124 1    
   113   57   58 2    
   114   57   59 am   BACKBONE|DICT|INTERRES
   115   59   60 1    
   116   59  125 1    
   117   60   61 1    
   118   60   62 1    
   119   60  126 1    
   120   61  127 1    
   121   61  128 1    
   122   61  129 1    
   123   62   63 2    
   124   62   64 am   BACKBONE|DICT|INTERRES
   125   64   65 1    
   126   64  130 1    
   127   65   66 1    
   128   65   69 1    
   129   65  131 1    
   130   66   67 am   BACKBONE|DICT|INTERRES
   131   66   68 2    
   132   67  132 1    
   133   67  133 1    
   134   69   70 1    
   135   69  134 1    
   136   69  135 1    
   137   70   71 1    
   138   71  136 1    
   139   71  137 1    
@<TRIPOS>SUBSTRUCTURE
     1 UNK         1 GROUP             0       ****    0 ROOT    
