@<TRIPOS>MOLECULE
3R137
137   139    1
SMALL
USER_CHARGES


@<TRIPOS>ATOM
      1 CA         30.7484   -1.9901    1.0174 C.3       0 UNK        -0.2020 
      2 C          29.5964   -1.7585    1.9919 C.2       0 UNK         0.4855 
      3 O          29.8415   -1.6078    3.1873 O.2       0 UNK        -0.5197 
      4 N          28.3352   -1.7193    1.5475 N.am      1 UNK        -0.4892 
      5 CA         27.8483   -1.8458    0.1742 C.3       1 UNK         0.0835 
      6 C6         27.8848   -3.3114   -0.3432 C.3       12 UNK        -0.0855 
      7 S7         28.1276   -3.3893   -2.1496 S.3       12 UNK        -0.2931 
      8 C8         29.8406   -3.9980   -2.2446 C.3       12 UNK         0.0378 
      9 C9         30.3411   -4.0373   -3.6801 C.ar      12 UNK        -0.0802 
     10 C10        31.3535   -3.1711   -4.1023 C.ar      12 UNK        -0.0944 
     11 C11        31.8197   -3.2055   -5.4215 C.ar      12 UNK        -0.0787 
     12 C12        31.2635   -4.1251   -6.3195 C.ar      12 UNK        -0.0862 
     13 C13        30.2616   -5.0096   -5.9033 C.ar      12 UNK        -0.0733 
     14 C14        29.8076   -4.9602   -4.5822 C.ar      12 UNK        -0.0832 
     15 C15        29.6992   -6.0556   -6.8586 C.3       12 UNK         0.0240 
     16 S16        28.5741   -5.3617   -8.1123 S.3       12 UNK        -0.2522 
     17 C17        27.2189   -4.6596   -7.1054 C.3       12 UNK        -0.0967 
     18 CA         26.8110   -3.2408   -7.5737 C.3       5 UNK         0.0660 
     19 N          25.5168   -2.8288   -7.0183 N.am      5 UNK        -0.4015 
     20 C          24.8676   -1.6980   -7.3324 C.2       4 UNK         0.4946 
     21 O          25.3159   -0.8432   -8.0977 O.2       4 UNK        -0.5353 
     22 CA         23.5118   -1.4446   -6.6639 C.3       4 UNK         0.0277 
     23 CB         22.8908   -2.6781   -5.9752 C.3       4 UNK        -0.1981 
     24 N          23.7128   -0.3893   -5.6819 N.am      4 UNK        -0.4209 
     25 C          22.9256    0.6650   -5.4615 C.2       3 UNK         0.4942 
     26 O          21.8715    0.8743   -6.0648 O.2       3 UNK        -0.5208 
     27 CA         23.4045    1.6350   -4.3587 C.3       3 UNK         0.0250 
     28 CB         22.4521    2.8298   -4.1644 C.3       3 UNK        -0.1990 
     29 N          23.6063    0.9695   -3.0652 N.am      3 UNK        -0.4232 
     30 C          24.6122    0.1379   -2.7621 C.2       2 UNK         0.4993 
     31 O          25.5055   -0.1763   -3.5565 O.2       2 UNK        -0.5286 
     32 CA         24.5897   -0.4837   -1.3627 C.3       2 UNK         0.0209 
     33 CB         23.5242   -1.5931   -1.2718 C.3       2 UNK        -0.1931 
     34 N          25.9085   -1.0435   -1.0841 N.am      2 UNK        -0.4546 
     35 C          26.4281   -1.2503    0.1280 C.2       1 UNK         0.5154 
     36 O          25.8308   -0.9994    1.1804 O.2       1 UNK        -0.5181 
     37 C          27.9289   -2.2009   -7.3457 C.2       5 UNK         0.5014 
     38 O          28.6715   -1.9154   -8.2845 O.2       5 UNK        -0.5248 
     39 N          27.9996   -1.6079   -6.1434 N.am      6 UNK        -0.4434 
     40 CA         28.9970   -0.5830   -5.8206 C.3       6 UNK         0.0363 
     41 CB         28.9981   -0.2850   -4.3143 C.3       6 UNK        -0.1936 
     42 C          28.8297    0.7141   -6.6283 C.2       6 UNK         0.5081 
     43 O          29.8305    1.3285   -7.0000 O.2       6 UNK        -0.5248 
     44 N          27.5748    1.0894   -6.9121 N.am      7 UNK        -0.4718 
     45 CA         27.2296    2.2290   -7.7623 C.3       7 UNK         0.0273 
     46 CB         25.7665    2.6361   -7.5252 C.3       7 UNK        -0.1935 
     47 C          27.4888    1.9353   -9.2477 C.2       7 UNK         0.5018 
     48 O          28.0017    2.8073   -9.9483 O.2       7 UNK        -0.5186 
     49 N          27.1621    0.7124   -9.6919 N.am      8 UNK        -0.4240 
     50 CA         27.4139    0.2219  -11.0501 C.3       8 UNK         0.0235 
     51 CB         26.7022   -1.1248  -11.2564 C.3       8 UNK        -0.2000 
     52 C          28.9138    0.1047  -11.3716 C.2       8 UNK         0.4941 
     53 O          29.3348    0.5243  -12.4502 O.2       8 UNK        -0.5273 
     54 N          29.6940   -0.4356  -10.4247 N.am      9 UNK        -0.4262 
     55 CA         31.1554   -0.5169  -10.4931 C.3       9 UNK         0.0264 
     56 CB         31.6557   -1.5063   -9.4272 C.3       9 UNK        -0.1955 
     57 C          31.8459    0.8460  -10.3095 C.2       9 UNK         0.5031 
     58 O          32.9727    1.0112  -10.7789 O.2       9 UNK        -0.5390 
     59 N          31.1707    1.7763   -9.6167 N.am      10 UNK        -0.4204 
     60 CA         31.6317    3.1078   -9.2083 C.3       10 UNK         0.0237 
     61 CB         31.8514    4.0197  -10.4341 C.3       10 UNK        -0.1985 
     62 C          32.8504    3.0446   -8.2663 C.2       10 UNK         0.4970 
     63 O          33.7429    3.8902   -8.3548 O.2       10 UNK        -0.4914 
     64 N          32.8666    2.0347   -7.3870 N.am      11 UNK        -0.4285 
     65 CA         33.9414    1.7831   -6.4154 C.3       11 UNK         0.1007 
     66 C          33.8359    2.6197   -5.1067 C.2       11 UNK         0.5703 
     67 N          32.7463    3.3395   -4.8631 N.am      11 UNK        -0.7361 
     68 O          34.7698    2.6314   -4.3081 O.2       11 UNK        -0.4986 
     69 C69        34.1217    0.2652   -6.1448 C.3       12 UNK        -0.0947 
     70 S70        32.6314   -0.5360   -5.4687 S.3       12 UNK        -0.2240 
     71 C71        32.9539   -2.2847   -5.8632 C.3       12 UNK         0.0194 
     72 H72        30.8452   -3.0505    0.7892 H         1 UNK         0.0906 
     73 H73        30.6241   -1.4370    0.0882 H         1 UNK         0.0906 
     74 H74        31.6876   -1.6621    1.4624 H         1 UNK         0.0906 
     75 H75        27.5831   -1.5166    2.1974 H         1 UNK         0.3140 
     76 H76        28.4663   -1.2073   -0.4596 H         1 UNK         0.1085 
     77 H77        28.6845   -3.8756    0.1371 H         1 UNK         0.0836 
     78 H78        26.9712   -3.8509   -0.0845 H         1 UNK         0.0836 
     79 H79        30.4829   -3.3592   -1.6379 H         1 UNK         0.0731 
     80 H80        29.8966   -4.9984   -1.8126 H         1 UNK         0.0731 
     81 H81        31.7831   -2.4662   -3.4037 H         1 UNK         0.1312 
     82 H82        31.6193   -4.1676   -7.3399 H         1 UNK         0.1406 
     83 H83        29.0366   -5.6419   -4.2488 H         1 UNK         0.1631 
     84 H84        29.1739   -6.8384   -6.3092 H         1 UNK         0.0717 
     85 H85        30.5257   -6.5509   -7.3700 H         1 UNK         0.0717 
     86 H86        26.3708   -5.3398   -7.1990 H         1 UNK         0.0934 
     87 H87        27.4797   -4.6556   -6.0469 H         1 UNK         0.0934 
     88 H88        26.6559   -3.2920   -8.6534 H         1 UNK         0.0739 
     89 H89        25.0783   -3.4680   -6.3720 H         1 UNK         0.3093 
     90 H90        22.8334   -1.1033   -7.4489 H         1 UNK         0.0818 
     91 H91        21.8954   -2.4455   -5.5960 H         1 UNK         0.0819 
     92 H92        22.7767   -3.5080   -6.6742 H         1 UNK         0.0819 
     93 H93        23.4855   -3.0245   -5.1289 H         1 UNK         0.0819 
     94 H94        24.5484   -0.4595   -5.1040 H         1 UNK         0.3041 
     95 H95        24.3673    2.0330   -4.6843 H         1 UNK         0.0784 
     96 H96        22.3189    3.3793   -5.0975 H         1 UNK         0.0793 
     97 H97        21.4645    2.5093   -3.8303 H         1 UNK         0.0793 
     98 H98        22.8434    3.5347   -3.4306 H         1 UNK         0.0793 
     99 H99        22.8941    1.1362   -2.3686 H         1 UNK         0.3024 
    100 H100       24.3704    0.3051   -0.6390 H         1 UNK         0.1171 
    101 H101       23.7173   -2.3939   -1.9870 H         1 UNK         0.0786 
    102 H102       22.5266   -1.2037   -1.4781 H         1 UNK         0.0786 
    103 H103       23.4951   -2.0359   -0.2760 H         1 UNK         0.0786 
    104 H104       26.4562   -1.2455   -1.9132 H         1 UNK         0.2977 
    105 H105       27.3566   -1.8761   -5.4127 H         1 UNK         0.3127 
    106 H106       29.9662   -1.0031   -6.0857 H         1 UNK         0.0770 
    107 H107       29.2059   -1.1817   -3.7340 H         1 UNK         0.0814 
    108 H108       28.0467    0.1264   -3.9795 H         1 UNK         0.0814 
    109 H109       29.7727    0.4419   -4.0661 H         1 UNK         0.0814 
    110 H110       26.8160    0.4942   -6.6126 H         1 UNK         0.2983 
    111 H111       27.8638    3.0725   -7.4792 H         1 UNK         0.0947 
    112 H112       25.4862    3.4714   -8.1684 H         1 UNK         0.0806 
    113 H113       25.6108    2.9582   -6.4963 H         1 UNK         0.0806 
    114 H114       25.0749    1.8192   -7.7337 H         1 UNK         0.0806 
    115 H115       26.6867    0.0772   -9.0546 H         1 UNK         0.3000 
    116 H116       26.9816    0.9441  -11.7459 H         1 UNK         0.0850 
    117 H117       26.8299   -1.4802  -12.2797 H         1 UNK         0.0810 
    118 H118       25.6310   -1.0400  -11.0722 H         1 UNK         0.0810 
    119 H119       27.0952   -1.8948  -10.5926 H         1 UNK         0.0810 
    120 H120       29.2558   -0.8382   -9.5951 H         1 UNK         0.3040 
    121 H121       31.4321   -0.9007  -11.4772 H         1 UNK         0.0766 
    122 H122       32.7408   -1.6098   -9.4654 H         1 UNK         0.0812 
    123 H123       31.2279   -2.4983   -9.5740 H         1 UNK         0.0812 
    124 H124       31.3930   -1.1775   -8.4205 H         1 UNK         0.0812 
    125 H125       30.2737    1.5054   -9.2338 H         1 UNK         0.3205 
    126 H126       30.8191    3.5383   -8.6211 H         1 UNK         0.0754 
    127 H127       32.0594    5.0452  -10.1265 H         1 UNK         0.0769 
    128 H128       30.9653    4.0460  -11.0688 H         1 UNK         0.0769 
    129 H129       32.6917    3.6861  -11.0436 H         1 UNK         0.0769 
    130 H130       32.0575    1.4289   -7.3242 H         1 UNK         0.2981 
    131 H131       34.8743    2.1129   -6.8765 H         1 UNK         0.0541 
    132 H132       31.9717    3.3226   -5.5067 H         1 UNK         0.3459 
    133 H133       32.6920    3.8838   -4.0170 H         1 UNK         0.3459 
    134 H134       34.9546    0.0879   -5.4621 H         1 UNK         0.0612 
    135 H135       34.3891   -0.2342   -7.0774 H         1 UNK         0.0612 
    136 H136       33.1275   -2.3780   -6.9359 H         1 UNK         0.0624 
    137 H137       33.8746   -2.5967   -5.3688 H         1 UNK         0.0624 
@<TRIPOS>BOND
     1    1    2 1    
     2    1   72 1    
     3    1   73 1    
     4    1   74 1    
     5    2    3 2    
     6    2    4 am   BACKBONE|DICT|INTERRES
     7    4    5 1    
     8    4   75 1    
     9    5    6 1    
    10    5   35 1    
    11    5   76 1    
    12    6    7 1    
    13    6   77 1    
    14    6   78 1    
    15    7    8 1    
    16    8    9 1    
    17    8   79 1    
    18    8   80 1    
    19    9   10 ar   
    20    9   14 ar   
    21   10   11 ar   
    22   10   81 1    
    23   11   12 ar   
    24   11   71 1    
    25   12   13 ar   
    26   12   82 1    
    27   13   14 ar   
    28   13   15 1    
    29   14   83 1    
    30   15   16 1    
    31   15   84 1    
    32   15   85 1    
    33   16   17 1    
    34   17   18 1    
    35   17   86 1    
    36   17   87 1    
    37   18   19 1    
    38   18   37 1    
    39   18   88 1    
    40   19   20 am   BACKBONE|DICT|INTERRES
    41   19   89 1    
    42   20   21 2    
    43   20   22 1    
    44   22   23 1    
    45   22   24 1    
    46   22   90 1    
    47   23   91 1    
    48   23   92 1    
    49   23   93 1    
    50   24   25 am   BACKBONE|DICT|INTERRES
    51   24   94 1    
    52   25   26 2    
    53   25   27 1    
    54   27   28 1    
    55   27   29 1    
    56   27   95 1    
    57   28   96 1    
    58   28   97 1    
    59   28   98 1    
    60   29   30 am   BACKBONE|DICT|INTERRES
    61   29   99 1    
    62   30   31 2    
    63   30   32 1    
    64   32   33 1    
    65   32   34 1    
    66   32  100 1    
    67   33  101 1    
    68   33  102 1    
    69   33  103 1    
    70   34   35 am   BACKBONE|DICT|INTERRES
    71   34  104 1    
    72   35   36 2    
    73   37   38 2    
    74   37   39 am   BACKBONE|DICT|INTERRES
    75   39   40 1    
    76   39  105 1    
    77   40   41 1    
    78   40   42 1    
    79   40  106 1    
    80   41  107 1    
    81   41  108 1    
    82   41  109 1    
    83   42   43 2    
    84   42   44 am   BACKBONE|DICT|INTERRES
    85   44   45 1    
    86   44  110 1    
    87   45   46 1    
    88   45   47 1    
    89   45  111 1    
    90   46  112 1    
    91   46  113 1    
    92   46  114 1    
    93   47   48 2    
    94   47   49 am   BACKBONE|DICT|INTERRES
    95   49   50 1    
    96   49  115 1    
    97   50   51 1    
    98   50   52 1    
    99   50  116 1    
   100   51  117 1    
   101   51  118 1    
   102   51  119 1    
   103   52   53 2    
   104   52   54 am   BACKBONE|DICT|INTERRES
   105   54   55 1    
   106   54  120 1    
   107   55   56 1    
   108   55   57 1    
   109   55  121 1    
   110   56  122 1    
   111   56  123 1    
   112   56  124 1    
   113   57   58 2    
   114   57   59 am   BACKBONE|DICT|INTERRES
   115   59   60 1    
   116   59  125 1    
   117   60   61 1    
   118   60   62 1    
   119   60  126 1    
   120   61  127 1    
   121   61  128 1    
   122   61  129 1    
   123   62   63 2    
   124   62   64 am   BACKBONE|DICT|INTERRES
   125   64   65 1    
   126   64  130 1    
   127   65   66 1    
   128   65   69 1    
   129   65  131 1    
   130   66   67 am   BACKBONE|DICT|INTERRES
   131   66   68 2    
   132   67  132 1    
   133   67  133 1    
   134   69   70 1    
   135   69  134 1    
   136   69  135 1    
   137   70   71 1    
   138   71  136 1    
   139   71  137 1    
@<TRIPOS>SUBSTRUCTURE
     1 UNK         1 GROUP             0       ****    0 ROOT    
