@<TRIPOS>MOLECULE
3R137
137   139    1
SMALL
USER_CHARGES


@<TRIPOS>ATOM
      1 CA         28.7096   -4.5081   -3.8288 C.3       0 UNK        -0.2020 
      2 C          27.9091   -4.0885   -2.6084 C.2       0 UNK         0.4855 
      3 O          26.7958   -4.5748   -2.4007 O.2       0 UNK        -0.5197 
      4 N          28.4593   -3.1761   -1.7962 N.am      1 UNK        -0.4892 
      5 CA         27.8732   -2.6835   -0.5392 C.3       1 UNK         0.0835 
      6 C6         28.9484   -2.1430    0.4421 C.3       12 UNK        -0.0855 
      7 S7         30.2944   -3.3404    0.7570 S.3       12 UNK        -0.2931 
      8 C8         31.7584   -2.4622    0.1149 C.3       12 UNK         0.0378 
      9 C9         31.6690   -2.2078   -1.3836 C.ar      12 UNK        -0.0802 
     10 C10        31.9621   -3.2292   -2.2933 C.ar      12 UNK        -0.0944 
     11 C11        31.8742   -2.9970   -3.6694 C.ar      12 UNK        -0.0787 
     12 C12        31.4725   -1.7404   -4.1307 C.ar      12 UNK        -0.0862 
     13 C13        31.1948   -0.7071   -3.2332 C.ar      12 UNK        -0.0733 
     14 C14        31.3054   -0.9443   -1.8609 C.ar      12 UNK        -0.0832 
     15 C15        30.8075    0.6734   -3.7457 C.3       12 UNK         0.0240 
     16 S16        29.1287    1.1639   -3.2410 S.3       12 UNK        -0.2522 
     17 C17        28.0883    0.0274   -4.2161 C.3       12 UNK        -0.0967 
     18 CA         27.7452    0.5450   -5.6362 C.3       5 UNK         0.0660 
     19 N          27.1314   -0.5197   -6.4310 N.am      5 UNK        -0.4015 
     20 C          26.7071   -0.4571   -7.6986 C.2       4 UNK         0.4946 
     21 O          26.8217    0.5450   -8.4050 O.2       4 UNK        -0.5353 
     22 CA         25.9753   -1.6961   -8.2590 C.3       4 UNK         0.0277 
     23 CB         26.9658   -2.7167   -8.8513 C.3       4 UNK        -0.1981 
     24 N          25.0542   -2.3386   -7.3040 N.am      4 UNK        -0.4209 
     25 C          25.3561   -2.9698   -6.1601 C.2       3 UNK         0.4942 
     26 O          26.5063   -3.1516   -5.7564 O.2       3 UNK        -0.5208 
     27 CA         24.1776   -3.4009   -5.2742 C.3       3 UNK         0.0250 
     28 CB         24.0746   -4.9334   -5.2204 C.3       3 UNK        -0.1990 
     29 N          24.3222   -2.8771   -3.9125 N.am      3 UNK        -0.4232 
     30 C          24.4113   -1.5755   -3.5941 C.2       2 UNK         0.4993 
     31 O          24.3411   -0.6620   -4.4164 O.2       2 UNK        -0.5286 
     32 CA         24.6745   -1.2340   -2.1245 C.3       2 UNK         0.0209 
     33 CB         23.4124   -1.4189   -1.2656 C.3       2 UNK        -0.1931 
     34 N          25.7657   -2.0603   -1.6148 N.am      2 UNK        -0.4546 
     35 C          26.7474   -1.6556   -0.8045 C.2       1 UNK         0.5154 
     36 O          26.7949   -0.5298   -0.3053 O.2       1 UNK        -0.5181 
     37 C          26.8903    1.8321   -5.6113 C.2       5 UNK         0.5014 
     38 O          27.4279    2.9154   -5.8445 O.2       5 UNK        -0.5248 
     39 N          25.5704    1.6972   -5.4063 N.am      6 UNK        -0.4434 
     40 CA         24.6068    2.8053   -5.4304 C.3       6 UNK         0.0363 
     41 CB         23.2426    2.3057   -4.9290 C.3       6 UNK        -0.1936 
     42 C          24.4556    3.4848   -6.8062 C.2       6 UNK         0.5081 
     43 O          24.0326    4.6397   -6.8590 O.2       6 UNK        -0.5248 
     44 N          24.8164    2.7783   -7.8860 N.am      7 UNK        -0.4718 
     45 CA         24.8658    3.2982   -9.2554 C.3       7 UNK         0.0273 
     46 CB         24.3841    2.1980  -10.2187 C.3       7 UNK        -0.1935 
     47 C          26.2749    3.7931   -9.6407 C.2       7 UNK         0.5018 
     48 O          26.4796    4.1575  -10.7991 O.2       7 UNK        -0.5186 
     49 N          27.2188    3.7799   -8.6845 N.am      8 UNK        -0.4240 
     50 CA         28.6424    4.1163   -8.8092 C.3       8 UNK         0.0235 
     51 CB         28.8415    5.5817   -9.2520 C.3       8 UNK        -0.2000 
     52 C          29.4518    3.1229   -9.6664 C.2       8 UNK         0.4941 
     53 O          30.5827    3.4351  -10.0441 O.2       8 UNK        -0.5273 
     54 N          28.9054    1.9269   -9.9236 N.am      9 UNK        -0.4262 
     55 CA         29.5660    0.8395  -10.6441 C.3       9 UNK         0.0264 
     56 CB         28.5153    0.0819  -11.4766 C.3       9 UNK        -0.1955 
     57 C          30.3064   -0.0564   -9.6381 C.2       9 UNK         0.5031 
     58 O          29.9522   -1.2230   -9.4616 O.2       9 UNK        -0.5390 
     59 N          31.2943    0.5320   -8.9523 N.am      10 UNK        -0.4204 
     60 CA         32.0807   -0.1124   -7.9015 C.3       10 UNK         0.0237 
     61 CB         32.8848    0.9598   -7.1476 C.3       10 UNK        -0.1985 
     62 C          33.0109   -1.2128   -8.4417 C.2       10 UNK         0.4970 
     63 O          33.4464   -1.1476   -9.5936 O.2       10 UNK        -0.4914 
     64 N          33.3221   -2.1810   -7.5734 N.am      11 UNK        -0.4285 
     65 CA         34.2305   -3.3080   -7.8360 C.3       11 UNK         0.1007 
     66 C          35.7450   -2.9430   -7.8791 C.2       11 UNK         0.5703 
     67 N          36.1542   -1.7369   -7.5025 N.am      11 UNK        -0.7361 
     68 O          36.5632   -3.7686   -8.2780 O.2       11 UNK        -0.4986 
     69 C69        33.9393   -4.4990   -6.8799 C.3       12 UNK        -0.0947 
     70 S70        33.9789   -4.0408   -5.1093 S.3       12 UNK        -0.2240 
     71 C71        32.2139   -4.0951   -4.6648 C.3       12 UNK         0.0194 
     72 H72        28.0880   -5.0837   -4.5145 H         1 UNK         0.0906 
     73 H73        29.0776   -3.6360   -4.3681 H         1 UNK         0.0906 
     74 H74        29.5553   -5.1273   -3.5332 H         1 UNK         0.0906 
     75 H75        29.3802   -2.8138   -2.0076 H         1 UNK         0.3140 
     76 H76        27.3950   -3.5314   -0.0429 H         1 UNK         0.1085 
     77 H77        28.4880   -1.9088    1.4038 H         1 UNK         0.0836 
     78 H78        29.3634   -1.2018    0.0817 H         1 UNK         0.0836 
     79 H79        32.6476   -3.0572    0.3289 H         1 UNK         0.0731 
     80 H80        31.8840   -1.5249    0.6595 H         1 UNK         0.0731 
     81 H81        32.2617   -4.2029   -1.9295 H         1 UNK         0.1312 
     82 H82        31.3875   -1.5643   -5.1912 H         1 UNK         0.1406 
     83 H83        31.0974   -0.1413   -1.1664 H         1 UNK         0.1631 
     84 H84        30.8805    0.7249   -4.8326 H         1 UNK         0.0717 
     85 H85        31.5173    1.4051   -3.3578 H         1 UNK         0.0717 
     86 H86        27.1758   -0.1611   -3.6489 H         1 UNK         0.0934 
     87 H87        28.5937   -0.9373   -4.2786 H         1 UNK         0.0934 
     88 H88        28.6804    0.7935   -6.1422 H         1 UNK         0.0739 
     89 H89        26.9913   -1.4140   -5.9651 H         1 UNK         0.3093 
     90 H90        25.3477   -1.3392   -9.0773 H         1 UNK         0.0818 
     91 H91        27.5170   -2.2862   -9.6861 H         1 UNK         0.0819 
     92 H92        27.7033   -3.0465   -8.1188 H         1 UNK         0.0819 
     93 H93        26.4500   -3.5991   -9.2293 H         1 UNK         0.0819 
     94 H94        24.0739   -2.2100   -7.5156 H         1 UNK         0.3041 
     95 H95        23.2494   -3.0021   -5.6886 H         1 UNK         0.0784 
     96 H96        23.9573   -5.3528   -6.2205 H         1 UNK         0.0793 
     97 H97        24.9683   -5.3806   -4.7817 H         1 UNK         0.0793 
     98 H98        23.2149   -5.2544   -4.6319 H         1 UNK         0.0793 
     99 H99        24.4157   -3.5673   -3.1822 H         1 UNK         0.3024 
    100 H100       24.9666   -0.1814   -2.0885 H         1 UNK         0.1171 
    101 H101       23.5862   -1.0996   -0.2378 H         1 UNK         0.0786 
    102 H102       22.5856   -0.8228   -1.6544 H         1 UNK         0.0786 
    103 H103       23.0849   -2.4588   -1.2410 H         1 UNK         0.0786 
    104 H104       25.8740   -2.9900   -2.0144 H         1 UNK         0.2977 
    105 H105       25.1890    0.7755   -5.1949 H         1 UNK         0.3127 
    106 H106       24.9649    3.5673   -4.7350 H         1 UNK         0.0770 
    107 H107       22.8470    1.5118   -5.5639 H         1 UNK         0.0814 
    108 H108       22.5085    3.1125   -4.9177 H         1 UNK         0.0814 
    109 H109       23.3114    1.9181   -3.9124 H         1 UNK         0.0814 
    110 H110       25.2049    1.8520   -7.7544 H         1 UNK         0.2983 
    111 H111       24.1903    4.1508   -9.3529 H         1 UNK         0.0947 
    112 H112       25.0558    1.3393  -10.2241 H         1 UNK         0.0806 
    113 H113       24.3281    2.5710  -11.2422 H         1 UNK         0.0806 
    114 H114       23.3884    1.8442   -9.9512 H         1 UNK         0.0806 
    115 H115       26.9503    3.4486   -7.7634 H         1 UNK         0.3000 
    116 H116       29.0503    4.0266   -7.8014 H         1 UNK         0.0850 
    117 H117       29.8892    5.8747   -9.1733 H         1 UNK         0.0810 
    118 H118       28.2682    6.2667   -8.6274 H         1 UNK         0.0810 
    119 H119       28.5410    5.7384  -10.2882 H         1 UNK         0.0810 
    120 H120       28.0179    1.6898   -9.4875 H         1 UNK         0.3040 
    121 H121       30.3092    1.2402  -11.3369 H         1 UNK         0.0766 
    122 H122       28.9592   -0.7745  -11.9858 H         1 UNK         0.0812 
    123 H123       28.0829    0.7266  -12.2419 H         1 UNK         0.0812 
    124 H124       27.6983   -0.2882  -10.8584 H         1 UNK         0.0812 
    125 H125       31.5241    1.4907   -9.1816 H         1 UNK         0.3205 
    126 H126       31.3711   -0.5687   -7.2102 H         1 UNK         0.0754 
    127 H127       33.4236    0.5282   -6.3029 H         1 UNK         0.0769 
    128 H128       32.2341    1.7385   -6.7488 H         1 UNK         0.0769 
    129 H129       33.6208    1.4395   -7.7945 H         1 UNK         0.0769 
    130 H130       32.9693   -2.1367   -6.6304 H         1 UNK         0.2981 
    131 H131       34.0041   -3.6609   -8.8440 H         1 UNK         0.0541 
    132 H132       37.1365   -1.5157   -7.5426 H         1 UNK         0.3459 
    133 H133       35.4950   -1.0512   -7.1743 H         1 UNK         0.3459 
    134 H134       32.9666   -4.9292   -7.1217 H         1 UNK         0.0612 
    135 H135       34.6531   -5.3091   -7.0403 H         1 UNK         0.0612 
    136 H136       31.9819   -5.0764   -4.2486 H         1 UNK         0.0624 
    137 H137       31.5907   -3.9829   -5.5533 H         1 UNK         0.0624 
@<TRIPOS>BOND
     1    1    2 1    
     2    1   72 1    
     3    1   73 1    
     4    1   74 1    
     5    2    3 2    
     6    2    4 am   BACKBONE|DICT|INTERRES
     7    4    5 1    
     8    4   75 1    
     9    5    6 1    
    10    5   35 1    
    11    5   76 1    
    12    6    7 1    
    13    6   77 1    
    14    6   78 1    
    15    7    8 1    
    16    8    9 1    
    17    8   79 1    
    18    8   80 1    
    19    9   10 ar   
    20    9   14 ar   
    21   10   11 ar   
    22   10   81 1    
    23   11   12 ar   
    24   11   71 1    
    25   12   13 ar   
    26   12   82 1    
    27   13   14 ar   
    28   13   15 1    
    29   14   83 1    
    30   15   16 1    
    31   15   84 1    
    32   15   85 1    
    33   16   17 1    
    34   17   18 1    
    35   17   86 1    
    36   17   87 1    
    37   18   19 1    
    38   18   37 1    
    39   18   88 1    
    40   19   20 am   BACKBONE|DICT|INTERRES
    41   19   89 1    
    42   20   21 2    
    43   20   22 1    
    44   22   23 1    
    45   22   24 1    
    46   22   90 1    
    47   23   91 1    
    48   23   92 1    
    49   23   93 1    
    50   24   25 am   BACKBONE|DICT|INTERRES
    51   24   94 1    
    52   25   26 2    
    53   25   27 1    
    54   27   28 1    
    55   27   29 1    
    56   27   95 1    
    57   28   96 1    
    58   28   97 1    
    59   28   98 1    
    60   29   30 am   BACKBONE|DICT|INTERRES
    61   29   99 1    
    62   30   31 2    
    63   30   32 1    
    64   32   33 1    
    65   32   34 1    
    66   32  100 1    
    67   33  101 1    
    68   33  102 1    
    69   33  103 1    
    70   34   35 am   BACKBONE|DICT|INTERRES
    71   34  104 1    
    72   35   36 2    
    73   37   38 2    
    74   37   39 am   BACKBONE|DICT|INTERRES
    75   39   40 1    
    76   39  105 1    
    77   40   41 1    
    78   40   42 1    
    79   40  106 1    
    80   41  107 1    
    81   41  108 1    
    82   41  109 1    
    83   42   43 2    
    84   42   44 am   BACKBONE|DICT|INTERRES
    85   44   45 1    
    86   44  110 1    
    87   45   46 1    
    88   45   47 1    
    89   45  111 1    
    90   46  112 1    
    91   46  113 1    
    92   46  114 1    
    93   47   48 2    
    94   47   49 am   BACKBONE|DICT|INTERRES
    95   49   50 1    
    96   49  115 1    
    97   50   51 1    
    98   50   52 1    
    99   50  116 1    
   100   51  117 1    
   101   51  118 1    
   102   51  119 1    
   103   52   53 2    
   104   52   54 am   BACKBONE|DICT|INTERRES
   105   54   55 1    
   106   54  120 1    
   107   55   56 1    
   108   55   57 1    
   109   55  121 1    
   110   56  122 1    
   111   56  123 1    
   112   56  124 1    
   113   57   58 2    
   114   57   59 am   BACKBONE|DICT|INTERRES
   115   59   60 1    
   116   59  125 1    
   117   60   61 1    
   118   60   62 1    
   119   60  126 1    
   120   61  127 1    
   121   61  128 1    
   122   61  129 1    
   123   62   63 2    
   124   62   64 am   BACKBONE|DICT|INTERRES
   125   64   65 1    
   126   64  130 1    
   127   65   66 1    
   128   65   69 1    
   129   65  131 1    
   130   66   67 am   BACKBONE|DICT|INTERRES
   131   66   68 2    
   132   67  132 1    
   133   67  133 1    
   134   69   70 1    
   135   69  134 1    
   136   69  135 1    
   137   70   71 1    
   138   71  136 1    
   139   71  137 1    
@<TRIPOS>SUBSTRUCTURE
     1 UNK         1 GROUP             0       ****    0 ROOT    
