@<TRIPOS>MOLECULE
3R137
137   139    1
SMALL
USER_CHARGES


@<TRIPOS>ATOM
      1 CA         29.4511    1.9387    1.2546 C.3       0 UNK        -0.2020 
      2 C          29.6920    0.4797    1.6339 C.2       0 UNK         0.4855 
      3 O          29.7807    0.1732    2.8209 O.2       0 UNK        -0.5197 
      4 N          29.8118   -0.4547    0.6796 N.am      1 UNK        -0.4892 
      5 CA         29.6782   -0.2807   -0.7741 C.3       1 UNK         0.0835 
      6 C6         30.2980   -1.4656   -1.5599 C.3       12 UNK        -0.0855 
      7 S7         29.8790   -3.1310   -0.9224 S.3       12 UNK        -0.2931 
      8 C8         28.7574   -3.7912   -2.2052 C.3       12 UNK         0.0378 
      9 C9         29.3841   -4.1427   -3.5601 C.ar      12 UNK        -0.0802 
     10 C10        30.7133   -3.8512   -3.8997 C.ar      12 UNK        -0.0944 
     11 C11        31.2023   -4.1068   -5.1866 C.ar      12 UNK        -0.0787 
     12 C12        30.3541   -4.6908   -6.1341 C.ar      12 UNK        -0.0862 
     13 C13        29.0387   -5.0308   -5.8032 C.ar      12 UNK        -0.0733 
     14 C14        28.5676   -4.7551   -4.5160 C.ar      12 UNK        -0.0832 
     15 C15        28.1519   -5.7593   -6.8095 C.3       12 UNK         0.0240 
     16 S16        26.5127   -4.9815   -7.0260 S.3       12 UNK        -0.2522 
     17 C17        26.5680   -4.3362   -8.7381 C.3       12 UNK        -0.0967 
     18 CA         26.2845   -2.8177   -8.8566 C.3       5 UNK         0.0660 
     19 N          25.0434   -2.4164   -8.1876 N.am      5 UNK        -0.4015 
     20 C          24.4635   -1.2135   -8.3115 C.2       4 UNK         0.4946 
     21 O          24.8661   -0.3340   -9.0739 O.2       4 UNK        -0.5353 
     22 CA         23.2667   -0.9290   -7.3871 C.3       4 UNK         0.0277 
     23 CB         21.9668   -1.4782   -7.9961 C.3       4 UNK        -0.1981 
     24 N          23.4534   -1.4733   -6.0357 N.am      4 UNK        -0.4209 
     25 C          24.3782   -1.0322   -5.1722 C.2       3 UNK         0.4942 
     26 O          25.1430   -0.0950   -5.4109 O.2       3 UNK        -0.5208 
     27 CA         24.5134   -1.8020   -3.8533 C.3       3 UNK         0.0250 
     28 CB         25.3239   -3.0941   -4.0684 C.3       3 UNK        -0.1990 
     29 N          25.1671   -0.9483   -2.8613 N.am      3 UNK        -0.4232 
     30 C          25.1705   -1.1616   -1.5401 C.2       2 UNK         0.4993 
     31 O          24.6893   -2.1634   -1.0066 O.2       2 UNK        -0.5286 
     32 CA         25.8225   -0.0813   -0.6633 C.3       2 UNK         0.0209 
     33 CB         25.1213    0.0536    0.7014 C.3       2 UNK        -0.1931 
     34 N          27.2343   -0.3876   -0.4363 N.am      2 UNK        -0.4546 
     35 C          28.2334    0.0296   -1.2236 C.2       1 UNK         0.5154 
     36 O          28.0522    0.6954   -2.2416 O.2       1 UNK        -0.5181 
     37 C          27.4857   -1.9723   -8.3964 C.2       5 UNK         0.5014 
     38 O          28.3078   -1.5924   -9.2288 O.2       5 UNK        -0.5248 
     39 N          27.5395   -1.6511   -7.0965 N.am      6 UNK        -0.4434 
     40 CA         28.5568   -0.7847   -6.5098 C.3       6 UNK         0.0363 
     41 CB         28.4846   -0.8374   -4.9823 C.3       6 UNK        -0.1936 
     42 C          28.4461    0.6630   -6.9925 C.2       6 UNK         0.5081 
     43 O          29.4740    1.2673   -7.2907 O.2       6 UNK        -0.5248 
     44 N          27.2156    1.1818   -7.0961 N.am      7 UNK        -0.4718 
     45 CA         26.9263    2.5041   -7.6547 C.3       7 UNK         0.0273 
     46 CB         25.4372    2.8322   -7.4641 C.3       7 UNK        -0.1935 
     47 C          27.3353    2.6243   -9.1335 C.2       7 UNK         0.5018 
     48 O          27.8731    3.6599   -9.5262 O.2       7 UNK        -0.5186 
     49 N          27.1079    1.5566   -9.9123 N.am      8 UNK        -0.4240 
     50 CA         27.5330    1.4458  -11.3089 C.3       8 UNK         0.0235 
     51 CB         26.8147    0.2604  -11.9745 C.3       8 UNK        -0.2000 
     52 C          29.0600    1.3200  -11.4614 C.2       8 UNK         0.4941 
     53 O          29.6410    2.0139  -12.2965 O.2       8 UNK        -0.5273 
     54 N          29.6820    0.4405  -10.6632 N.am      9 UNK        -0.4262 
     55 CA         31.1185    0.1437  -10.7078 C.3       9 UNK         0.0264 
     56 CB         31.3635   -1.2253  -10.0498 C.3       9 UNK        -0.1955 
     57 C          32.0141    1.2078  -10.0470 C.2       9 UNK         0.5031 
     58 O          33.2262    1.1721  -10.2642 O.2       9 UNK        -0.5390 
     59 N          31.4233    2.0942   -9.2323 N.am      10 UNK        -0.4204 
     60 CA         32.0776    3.0420   -8.3192 C.3       10 UNK         0.0237 
     61 CB         32.9472    4.0687   -9.0769 C.3       10 UNK        -0.1985 
     62 C          32.8252    2.3174   -7.1795 C.2       10 UNK         0.4970 
     63 O          33.9204    2.7278   -6.7911 O.2       10 UNK        -0.4914 
     64 N          32.2010    1.2501   -6.6669 N.am      11 UNK        -0.4285 
     65 CA         32.6566    0.4470   -5.5232 C.3       11 UNK         0.1007 
     66 C          32.2119    1.0314   -4.1485 C.2       11 UNK         0.5703 
     67 N          31.2921    1.9894   -4.1022 N.am      11 UNK        -0.7361 
     68 O          32.7167    0.6227   -3.1065 O.2       11 UNK        -0.4986 
     69 C69        32.2155   -1.0324   -5.6969 C.3       12 UNK        -0.0947 
     70 S70        33.3089   -2.2369   -4.8837 S.3       12 UNK        -0.2240 
     71 C71        32.6554   -3.8047   -5.5592 C.3       12 UNK         0.0194 
     72 H72        30.1655    2.2816    0.5073 H         1 UNK         0.0906 
     73 H73        28.4410    2.0796    0.8716 H         1 UNK         0.0906 
     74 H74        29.5638    2.5801    2.1286 H         1 UNK         0.0906 
     75 H75        29.9829   -1.4105    0.9624 H         1 UNK         0.3140 
     76 H76        30.2621    0.5986   -1.0528 H         1 UNK         0.1085 
     77 H77        30.0620   -1.3949   -2.6218 H         1 UNK         0.0836 
     78 H78        31.3851   -1.3809   -1.5127 H         1 UNK         0.0836 
     79 H79        27.9540   -3.0700   -2.3633 H         1 UNK         0.0731 
     80 H80        28.2865   -4.6879   -1.7997 H         1 UNK         0.0731 
     81 H81        31.3787   -3.4103   -3.1732 H         1 UNK         0.1312 
     82 H82        30.7300   -4.9107   -7.1240 H         1 UNK         0.1406 
     83 H83        27.5506   -5.0185   -4.2592 H         1 UNK         0.1631 
     84 H84        27.9971   -6.7766   -6.4478 H         1 UNK         0.0717 
     85 H85        28.6571   -5.8617   -7.7702 H         1 UNK         0.0717 
     86 H86        27.5193   -4.5811   -9.2137 H         1 UNK         0.0934 
     87 H87        25.8171   -4.8825   -9.3110 H         1 UNK         0.0934 
     88 H88        26.1500   -2.6003   -9.9187 H         1 UNK         0.0739 
     89 H89        24.6479   -3.0881   -7.5465 H         1 UNK         0.3093 
     90 H90        23.1701    0.1557   -7.3016 H         1 UNK         0.0818 
     91 H91        21.1005   -1.2062   -7.3927 H         1 UNK         0.0819 
     92 H92        21.8032   -1.0709   -8.9950 H         1 UNK         0.0819 
     93 H93        21.9857   -2.5649   -8.0868 H         1 UNK         0.0819 
     94 H94        22.8566   -2.2428   -5.7658 H         1 UNK         0.3041 
     95 H95        23.5122   -2.0512   -3.4950 H         1 UNK         0.0784 
     96 H96        24.8385   -3.7477   -4.7935 H         1 UNK         0.0793 
     97 H97        26.3264   -2.8787   -4.4363 H         1 UNK         0.0793 
     98 H98        25.4234   -3.6665   -3.1464 H         1 UNK         0.0793 
     99 H99        25.5884   -0.1100   -3.2459 H         1 UNK         0.3024 
    100 H100       25.7271    0.8797   -1.1753 H         1 UNK         0.1171 
    101 H101       25.5449    0.8721    1.2838 H         1 UNK         0.0786 
    102 H102       24.0583    0.2631    0.5743 H         1 UNK         0.0786 
    103 H103       25.2054   -0.8571    1.2959 H         1 UNK         0.0786 
    104 H104       27.4584   -0.9570    0.3675 H         1 UNK         0.2977 
    105 H105       26.8143   -1.9898   -6.4842 H         1 UNK         0.3127 
    106 H106       29.5271   -1.1674   -6.8286 H         1 UNK         0.0770 
    107 H107       27.5185   -0.5108   -4.6040 H         1 UNK         0.0814 
    108 H108       28.6636   -1.8429   -4.6170 H         1 UNK         0.0814 
    109 H109       29.2346   -0.1850   -4.5349 H         1 UNK         0.0814 
    110 H110       26.4270    0.6394   -6.7558 H         1 UNK         0.2983 
    111 H111       27.5116    3.2343   -7.0916 H         1 UNK         0.0947 
    112 H112       25.1548    2.7938   -6.4117 H         1 UNK         0.0806 
    113 H113       24.7962    2.1372   -8.0066 H         1 UNK         0.0806 
    114 H114       25.2101    3.8358   -7.8259 H         1 UNK         0.0806 
    115 H115       26.6046    0.7690   -9.5165 H         1 UNK         0.3000 
    116 H116       27.2239    2.3574  -11.8250 H         1 UNK         0.0850 
    117 H117       27.0896    0.1787  -13.0269 H         1 UNK         0.0810 
    118 H118       25.7318    0.3783  -11.9294 H         1 UNK         0.0810 
    119 H119       27.0656   -0.6871  -11.4971 H         1 UNK         0.0810 
    120 H120       29.1214   -0.1431  -10.0436 H         1 UNK         0.3040 
    121 H121       31.4205    0.0740  -11.7550 H         1 UNK         0.0766 
    122 H122       31.0659   -1.2250   -9.0007 H         1 UNK         0.0812 
    123 H123       32.4183   -1.5004  -10.0904 H         1 UNK         0.0812 
    124 H124       30.8044   -2.0135  -10.5545 H         1 UNK         0.0812 
    125 H125       30.4283    1.9768   -9.0769 H         1 UNK         0.3205 
    126 H126       31.2686    3.5955   -7.8400 H         1 UNK         0.0754 
    127 H127       33.2916    4.8560   -8.4053 H         1 UNK         0.0769 
    128 H128       32.3852    4.5491   -9.8778 H         1 UNK         0.0769 
    129 H129       33.8336    3.6103   -9.5160 H         1 UNK         0.0769 
    130 H130       31.2582    1.0601   -6.9983 H         1 UNK         0.2981 
    131 H131       33.7479    0.4715   -5.5262 H         1 UNK         0.0541 
    132 H132       30.8668    2.3327   -4.9479 H         1 UNK         0.3459 
    133 H133       31.0206    2.3712   -3.2111 H         1 UNK         0.3459 
    134 H134       32.1893   -1.2957   -6.7555 H         1 UNK         0.0612 
    135 H135       31.2075   -1.1878   -5.3189 H         1 UNK         0.0612 
    136 H136       33.2795   -4.6220   -5.1963 H         1 UNK         0.0624 
    137 H137       32.7747   -3.7845   -6.6436 H         1 UNK         0.0624 
@<TRIPOS>BOND
     1    1    2 1    
     2    1   72 1    
     3    1   73 1    
     4    1   74 1    
     5    2    3 2    
     6    2    4 am   BACKBONE|DICT|INTERRES
     7    4    5 1    
     8    4   75 1    
     9    5    6 1    
    10    5   35 1    
    11    5   76 1    
    12    6    7 1    
    13    6   77 1    
    14    6   78 1    
    15    7    8 1    
    16    8    9 1    
    17    8   79 1    
    18    8   80 1    
    19    9   10 ar   
    20    9   14 ar   
    21   10   11 ar   
    22   10   81 1    
    23   11   12 ar   
    24   11   71 1    
    25   12   13 ar   
    26   12   82 1    
    27   13   14 ar   
    28   13   15 1    
    29   14   83 1    
    30   15   16 1    
    31   15   84 1    
    32   15   85 1    
    33   16   17 1    
    34   17   18 1    
    35   17   86 1    
    36   17   87 1    
    37   18   19 1    
    38   18   37 1    
    39   18   88 1    
    40   19   20 am   BACKBONE|DICT|INTERRES
    41   19   89 1    
    42   20   21 2    
    43   20   22 1    
    44   22   23 1    
    45   22   24 1    
    46   22   90 1    
    47   23   91 1    
    48   23   92 1    
    49   23   93 1    
    50   24   25 am   BACKBONE|DICT|INTERRES
    51   24   94 1    
    52   25   26 2    
    53   25   27 1    
    54   27   28 1    
    55   27   29 1    
    56   27   95 1    
    57   28   96 1    
    58   28   97 1    
    59   28   98 1    
    60   29   30 am   BACKBONE|DICT|INTERRES
    61   29   99 1    
    62   30   31 2    
    63   30   32 1    
    64   32   33 1    
    65   32   34 1    
    66   32  100 1    
    67   33  101 1    
    68   33  102 1    
    69   33  103 1    
    70   34   35 am   BACKBONE|DICT|INTERRES
    71   34  104 1    
    72   35   36 2    
    73   37   38 2    
    74   37   39 am   BACKBONE|DICT|INTERRES
    75   39   40 1    
    76   39  105 1    
    77   40   41 1    
    78   40   42 1    
    79   40  106 1    
    80   41  107 1    
    81   41  108 1    
    82   41  109 1    
    83   42   43 2    
    84   42   44 am   BACKBONE|DICT|INTERRES
    85   44   45 1    
    86   44  110 1    
    87   45   46 1    
    88   45   47 1    
    89   45  111 1    
    90   46  112 1    
    91   46  113 1    
    92   46  114 1    
    93   47   48 2    
    94   47   49 am   BACKBONE|DICT|INTERRES
    95   49   50 1    
    96   49  115 1    
    97   50   51 1    
    98   50   52 1    
    99   50  116 1    
   100   51  117 1    
   101   51  118 1    
   102   51  119 1    
   103   52   53 2    
   104   52   54 am   BACKBONE|DICT|INTERRES
   105   54   55 1    
   106   54  120 1    
   107   55   56 1    
   108   55   57 1    
   109   55  121 1    
   110   56  122 1    
   111   56  123 1    
   112   56  124 1    
   113   57   58 2    
   114   57   59 am   BACKBONE|DICT|INTERRES
   115   59   60 1    
   116   59  125 1    
   117   60   61 1    
   118   60   62 1    
   119   60  126 1    
   120   61  127 1    
   121   61  128 1    
   122   61  129 1    
   123   62   63 2    
   124   62   64 am   BACKBONE|DICT|INTERRES
   125   64   65 1    
   126   64  130 1    
   127   65   66 1    
   128   65   69 1    
   129   65  131 1    
   130   66   67 am   BACKBONE|DICT|INTERRES
   131   66   68 2    
   132   67  132 1    
   133   67  133 1    
   134   69   70 1    
   135   69  134 1    
   136   69  135 1    
   137   70   71 1    
   138   71  136 1    
   139   71  137 1    
@<TRIPOS>SUBSTRUCTURE
     1 UNK         1 GROUP             0       ****    0 ROOT    
