@<TRIPOS>MOLECULE
3R137
137   139    1
SMALL
USER_CHARGES


@<TRIPOS>ATOM
      1 CA         31.4589   -0.1062    1.3956 C.3       0 UNK        -0.2020 
      2 C          30.7717   -0.5757    0.1227 C.2       0 UNK         0.4855 
      3 O          30.7974    0.1325   -0.8843 O.2       0 UNK        -0.5197 
      4 N          30.1496   -1.7605    0.1590 N.am      1 UNK        -0.4892 
      5 CA         29.4430   -2.3845   -0.9671 C.3       1 UNK         0.0835 
      6 C6         29.4165   -3.9307   -0.8475 C.3       12 UNK        -0.0855 
      7 S7         31.0953   -4.6476   -0.7839 S.3       12 UNK        -0.2931 
      8 C8         31.0355   -5.9103   -2.0971 C.3       12 UNK         0.0378 
      9 C9         31.0500   -5.3169   -3.5010 C.ar      12 UNK        -0.0802 
     10 C10        32.1736   -4.6197   -3.9597 C.ar      12 UNK        -0.0944 
     11 C11        32.2182   -4.1230   -5.2665 C.ar      12 UNK        -0.0787 
     12 C12        31.1311   -4.3373   -6.1185 C.ar      12 UNK        -0.0862 
     13 C13        29.9960   -5.0188   -5.6702 C.ar      12 UNK        -0.0733 
     14 C14        29.9623   -5.5090   -4.3605 C.ar      12 UNK        -0.0832 
     15 C15        28.8151   -5.2327   -6.6100 C.3       12 UNK         0.0240 
     16 S16        27.3456   -4.2770   -6.1127 S.3       12 UNK        -0.2522 
     17 C17        27.9583   -2.5593   -6.1936 C.3       12 UNK        -0.0967 
     18 CA         27.1975   -1.6747   -7.2061 C.3       5 UNK         0.0660 
     19 N          25.7505   -1.6794   -6.9826 N.am      5 UNK        -0.4015 
     20 C          24.8405   -1.0943   -7.7753 C.2       4 UNK         0.4946 
     21 O          25.1254   -0.5146   -8.8243 O.2       4 UNK        -0.5353 
     22 CA         23.3752   -1.1238   -7.3036 C.3       4 UNK         0.0277 
     23 CB         22.5954   -2.2185   -8.0487 C.3       4 UNK        -0.1981 
     24 N          23.2456   -1.3307   -5.8568 N.am      4 UNK        -0.4209 
     25 C          23.5928   -0.4325   -4.9231 C.2       3 UNK         0.4942 
     26 O          23.9393    0.7194   -5.1914 O.2       3 UNK        -0.5208 
     27 CA         23.5578   -0.9035   -3.4522 C.3       3 UNK         0.0250 
     28 CB         23.6550   -2.4397   -3.2976 C.3       3 UNK        -0.1990 
     29 N          24.5742   -0.2682   -2.6005 N.am      3 UNK        -0.4232 
     30 C          25.9015   -0.2269   -2.8005 C.2       2 UNK         0.4993 
     31 O          26.4592   -0.6123   -3.8299 O.2       2 UNK        -0.5286 
     32 CA         26.7754    0.3448   -1.6639 C.3       2 UNK         0.0209 
     33 CB         26.0238    0.5769   -0.3328 C.3       2 UNK        -0.1931 
     34 N          27.9740   -0.4751   -1.4372 N.am      2 UNK        -0.4546 
     35 C          28.0294   -1.7780   -1.1185 C.2       1 UNK         0.5154 
     36 O          27.0353   -2.4751   -0.9018 O.2       1 UNK        -0.5181 
     37 C          27.7771   -0.2445   -7.2182 C.2       5 UNK         0.5014 
     38 O          28.7257    0.0102   -7.9599 O.2       5 UNK        -0.5248 
     39 N          27.1707    0.6731   -6.4481 N.am      6 UNK        -0.4434 
     40 CA         27.5051    2.0975   -6.4266 C.3       6 UNK         0.0363 
     41 CB         26.7505    2.7985   -5.2878 C.3       6 UNK        -0.1936 
     42 C          27.2497    2.8034   -7.7663 C.2       6 UNK         0.5081 
     43 O          28.0417    3.6613   -8.1542 O.2       6 UNK        -0.5248 
     44 N          26.1773    2.4142   -8.4676 N.am      7 UNK        -0.4718 
     45 CA         25.8790    2.8966   -9.8168 C.3       7 UNK         0.0273 
     46 CB         24.3955    2.6526  -10.1382 C.3       7 UNK        -0.1935 
     47 C          26.7846    2.2387  -10.8707 C.2       7 UNK         0.5018 
     48 O          27.1653    2.9017  -11.8361 O.2       7 UNK        -0.5186 
     49 N          27.1051    0.9529  -10.6699 N.am      8 UNK        -0.4240 
     50 CA         27.9243    0.1540  -11.5797 C.3       8 UNK         0.0235 
     51 CB         27.7182   -1.3407  -11.2841 C.3       8 UNK        -0.2000 
     52 C          29.4201    0.5108  -11.5411 C.2       8 UNK         0.4941 
     53 O          30.0166    0.6759  -12.6065 O.2       8 UNK        -0.5273 
     54 N          30.0120    0.5776  -10.3392 N.am      9 UNK        -0.4262 
     55 CA         31.4664    0.6244  -10.1519 C.3       9 UNK         0.0264 
     56 CB         32.0258   -0.8143  -10.1843 C.3       9 UNK        -0.1955 
     57 C          31.9061    1.3805   -8.8851 C.2       9 UNK         0.5031 
     58 O          33.0128    1.1356   -8.4036 O.2       9 UNK        -0.5390 
     59 N          31.0637    2.2787   -8.3535 N.am      10 UNK        -0.4204 
     60 CA         31.2790    3.1354   -7.1710 C.3       10 UNK         0.0237 
     61 CB         32.5104    4.0487   -7.3367 C.3       10 UNK        -0.1985 
     62 C          31.3113    2.4000   -5.8156 C.2       10 UNK         0.4970 
     63 O          30.7953    2.9449   -4.8388 O.2       10 UNK        -0.4914 
     64 N          31.8659    1.1847   -5.7683 N.am      11 UNK        -0.4285 
     65 CA         31.8633    0.2607   -4.6220 C.3       11 UNK         0.1007 
     66 C          30.4637   -0.3552   -4.3244 C.2       11 UNK         0.5703 
     67 N          29.4342    0.4567   -4.1300 N.am      11 UNK        -0.7361 
     68 O          30.2968   -1.5662   -4.2627 O.2       11 UNK        -0.4986 
     69 C69        33.0154   -0.7814   -4.7243 C.3       12 UNK        -0.0947 
     70 S70        33.0836   -1.6846   -6.3125 S.3       12 UNK        -0.2240 
     71 C71        33.4507   -3.3874   -5.7761 C.3       12 UNK         0.0194 
     72 H72        31.3617   -0.8310    2.2038 H         1 UNK         0.0906 
     73 H73        32.5206    0.0543    1.2102 H         1 UNK         0.0906 
     74 H74        31.0251    0.8358    1.7300 H         1 UNK         0.0906 
     75 H75        30.1514   -2.2960    1.0155 H         1 UNK         0.3140 
     76 H76        29.9882   -2.1516   -1.8808 H         1 UNK         0.1085 
     77 H77        28.8764   -4.2415    0.0488 H         1 UNK         0.0836 
     78 H78        28.8759   -4.3605   -1.6931 H         1 UNK         0.0836 
     79 H79        31.9019   -6.5640   -1.9878 H         1 UNK         0.0731 
     80 H80        30.1596   -6.5434   -1.9461 H         1 UNK         0.0731 
     81 H81        33.0158   -4.4724   -3.2976 H         1 UNK         0.1312 
     82 H82        31.1680   -3.9574   -7.1303 H         1 UNK         0.1406 
     83 H83        29.0881   -6.0455   -4.0172 H         1 UNK         0.1631 
     84 H84        28.5574   -6.2925   -6.6258 H         1 UNK         0.0717 
     85 H85        29.0791   -4.9673   -7.6350 H         1 UNK         0.0717 
     86 H86        29.0206   -2.5591   -6.4403 H         1 UNK         0.0934 
     87 H87        27.8933   -2.1471   -5.1874 H         1 UNK         0.0934 
     88 H88        27.3609   -2.0965   -8.1983 H         1 UNK         0.0739 
     89 H89        25.4415   -2.1253   -6.1318 H         1 UNK         0.3093 
     90 H90        22.9332   -0.1565   -7.5522 H         1 UNK         0.0818 
     91 H91        21.5389   -2.2068   -7.7800 H         1 UNK         0.0819 
     92 H92        22.6546   -2.0714   -9.1282 H         1 UNK         0.0819 
     93 H93        22.9874   -3.2136   -7.8342 H         1 UNK         0.0819 
     94 H94        22.9455   -2.2464   -5.5538 H         1 UNK         0.3041 
     95 H95        22.5905   -0.5880   -3.0588 H         1 UNK         0.0784 
     96 H96        22.8036   -2.9494   -3.7498 H         1 UNK         0.0793 
     97 H97        24.5662   -2.8358   -3.7490 H         1 UNK         0.0793 
     98 H98        23.6647   -2.7260   -2.2456 H         1 UNK         0.0793 
     99 H99        24.2259    0.1246   -1.7379 H         1 UNK         0.3024 
    100 H100       27.1302    1.3143   -2.0164 H         1 UNK         0.1171 
    101 H101       26.6977    0.9625    0.4324 H         1 UNK         0.0786 
    102 H102       25.5813   -0.3420    0.0542 H         1 UNK         0.0786 
    103 H103       25.2263    1.3121   -0.4472 H         1 UNK         0.0786 
    104 H104       28.8663   -0.0054   -1.5624 H         1 UNK         0.2977 
    105 H105       26.4370    0.3651   -5.8190 H         1 UNK         0.3127 
    106 H106       28.5701    2.1744   -6.2221 H         1 UNK         0.0770 
    107 H107       25.6705    2.7525   -5.4299 H         1 UNK         0.0814 
    108 H108       27.0274    3.8520   -5.2293 H         1 UNK         0.0814 
    109 H109       26.9823    2.3502   -4.3227 H         1 UNK         0.0814 
    110 H110       25.5993    1.6667   -8.1068 H         1 UNK         0.2983 
    111 H111       26.0586    3.9738   -9.8508 H         1 UNK         0.0947 
    112 H112       24.1433    3.0438  -11.1248 H         1 UNK         0.0806 
    113 H113       23.7464    3.1500   -9.4175 H         1 UNK         0.0806 
    114 H114       24.1467    1.5910  -10.1374 H         1 UNK         0.0806 
    115 H115       26.6975    0.4768   -9.8729 H         1 UNK         0.3000 
    116 H116       27.5670    0.3410  -12.5950 H         1 UNK         0.0850 
    117 H117       28.2272   -1.9557  -12.0274 H         1 UNK         0.0810 
    118 H118       26.6622   -1.6112  -11.3058 H         1 UNK         0.0810 
    119 H119       28.1174   -1.6185  -10.3095 H         1 UNK         0.0810 
    120 H120       29.4587    0.4025   -9.4974 H         1 UNK         0.3040 
    121 H121       31.9129    1.1791  -10.9797 H         1 UNK         0.0766 
    122 H122       33.1140   -0.8210  -10.1095 H         1 UNK         0.0812 
    123 H123       31.6377   -1.4092   -9.3564 H         1 UNK         0.0812 
    124 H124       31.7688   -1.3235  -11.1131 H         1 UNK         0.0812 
    125 H125       30.1631    2.3939   -8.7997 H         1 UNK         0.3205 
    126 H126       30.4110    3.7934   -7.1316 H         1 UNK         0.0754 
    127 H127       32.5726    4.7658   -6.5171 H         1 UNK         0.0769 
    128 H128       32.4584    4.6202   -8.2633 H         1 UNK         0.0769 
    129 H129       33.4438    3.4853   -7.3406 H         1 UNK         0.0769 
    130 H130       32.2878    0.8291   -6.6209 H         1 UNK         0.2981 
    131 H131       32.0880    0.8558   -3.7348 H         1 UNK         0.0541 
    132 H132       29.5804    1.4567   -4.1802 H         1 UNK         0.3459 
    133 H133       28.5151    0.0637   -3.9778 H         1 UNK         0.3459 
    134 H134       32.9610   -1.4911   -3.8967 H         1 UNK         0.0612 
    135 H135       33.9715   -0.2700   -4.6062 H         1 UNK         0.0612 
    136 H136       33.8558   -3.9372   -6.6265 H         1 UNK         0.0624 
    137 H137       34.2390   -3.3658   -5.0221 H         1 UNK         0.0624 
@<TRIPOS>BOND
     1    1    2 1    
     2    1   72 1    
     3    1   73 1    
     4    1   74 1    
     5    2    3 2    
     6    2    4 am   BACKBONE|DICT|INTERRES
     7    4    5 1    
     8    4   75 1    
     9    5    6 1    
    10    5   35 1    
    11    5   76 1    
    12    6    7 1    
    13    6   77 1    
    14    6   78 1    
    15    7    8 1    
    16    8    9 1    
    17    8   79 1    
    18    8   80 1    
    19    9   10 ar   
    20    9   14 ar   
    21   10   11 ar   
    22   10   81 1    
    23   11   12 ar   
    24   11   71 1    
    25   12   13 ar   
    26   12   82 1    
    27   13   14 ar   
    28   13   15 1    
    29   14   83 1    
    30   15   16 1    
    31   15   84 1    
    32   15   85 1    
    33   16   17 1    
    34   17   18 1    
    35   17   86 1    
    36   17   87 1    
    37   18   19 1    
    38   18   37 1    
    39   18   88 1    
    40   19   20 am   BACKBONE|DICT|INTERRES
    41   19   89 1    
    42   20   21 2    
    43   20   22 1    
    44   22   23 1    
    45   22   24 1    
    46   22   90 1    
    47   23   91 1    
    48   23   92 1    
    49   23   93 1    
    50   24   25 am   BACKBONE|DICT|INTERRES
    51   24   94 1    
    52   25   26 2    
    53   25   27 1    
    54   27   28 1    
    55   27   29 1    
    56   27   95 1    
    57   28   96 1    
    58   28   97 1    
    59   28   98 1    
    60   29   30 am   BACKBONE|DICT|INTERRES
    61   29   99 1    
    62   30   31 2    
    63   30   32 1    
    64   32   33 1    
    65   32   34 1    
    66   32  100 1    
    67   33  101 1    
    68   33  102 1    
    69   33  103 1    
    70   34   35 am   BACKBONE|DICT|INTERRES
    71   34  104 1    
    72   35   36 2    
    73   37   38 2    
    74   37   39 am   BACKBONE|DICT|INTERRES
    75   39   40 1    
    76   39  105 1    
    77   40   41 1    
    78   40   42 1    
    79   40  106 1    
    80   41  107 1    
    81   41  108 1    
    82   41  109 1    
    83   42   43 2    
    84   42   44 am   BACKBONE|DICT|INTERRES
    85   44   45 1    
    86   44  110 1    
    87   45   46 1    
    88   45   47 1    
    89   45  111 1    
    90   46  112 1    
    91   46  113 1    
    92   46  114 1    
    93   47   48 2    
    94   47   49 am   BACKBONE|DICT|INTERRES
    95   49   50 1    
    96   49  115 1    
    97   50   51 1    
    98   50   52 1    
    99   50  116 1    
   100   51  117 1    
   101   51  118 1    
   102   51  119 1    
   103   52   53 2    
   104   52   54 am   BACKBONE|DICT|INTERRES
   105   54   55 1    
   106   54  120 1    
   107   55   56 1    
   108   55   57 1    
   109   55  121 1    
   110   56  122 1    
   111   56  123 1    
   112   56  124 1    
   113   57   58 2    
   114   57   59 am   BACKBONE|DICT|INTERRES
   115   59   60 1    
   116   59  125 1    
   117   60   61 1    
   118   60   62 1    
   119   60  126 1    
   120   61  127 1    
   121   61  128 1    
   122   61  129 1    
   123   62   63 2    
   124   62   64 am   BACKBONE|DICT|INTERRES
   125   64   65 1    
   126   64  130 1    
   127   65   66 1    
   128   65   69 1    
   129   65  131 1    
   130   66   67 am   BACKBONE|DICT|INTERRES
   131   66   68 2    
   132   67  132 1    
   133   67  133 1    
   134   69   70 1    
   135   69  134 1    
   136   69  135 1    
   137   70   71 1    
   138   71  136 1    
   139   71  137 1    
@<TRIPOS>SUBSTRUCTURE
     1 UNK         1 GROUP             0       ****    0 ROOT    
