@<TRIPOS>MOLECULE
3R137
137   139    1
SMALL
USER_CHARGES


@<TRIPOS>ATOM
      1 CA         26.3841   -6.9898    1.6100 C.3       0 UNK        -0.2020 
      2 C          26.9079   -5.5842    1.3551 C.2       0 UNK         0.4855 
      3 O          27.9053   -5.1847    1.9566 O.2       0 UNK        -0.5197 
      4 N          26.2445   -4.8331    0.4704 N.am      1 UNK        -0.4892 
      5 CA         26.5662   -3.4480    0.1286 C.3       1 UNK         0.0835 
      6 C6         27.7869   -3.3292   -0.8280 C.3       12 UNK        -0.0855 
      7 S7         28.5782   -1.6886   -0.6981 S.3       12 UNK        -0.2931 
      8 C8         30.3442   -2.1038   -0.8490 C.3       12 UNK         0.0378 
      9 C9         30.7826   -2.1628   -2.3052 C.ar      12 UNK        -0.0802 
     10 C10        31.5488   -1.1272   -2.8482 C.ar      12 UNK        -0.0944 
     11 C11        31.9745   -1.1805   -4.1782 C.ar      12 UNK        -0.0787 
     12 C12        31.6124   -2.2728   -4.9736 C.ar      12 UNK        -0.0862 
     13 C13        30.8492   -3.3172   -4.4416 C.ar      12 UNK        -0.0733 
     14 C14        30.4427   -3.2579   -3.1052 C.ar      12 UNK        -0.0832 
     15 C15        30.4977   -4.5324   -5.2911 C.3       12 UNK         0.0240 
     16 S16        29.5417   -4.1147   -6.7837 S.3       12 UNK        -0.2522 
     17 C17        27.9883   -3.4582   -6.0856 C.3       12 UNK        -0.0967 
     18 CA         27.4497   -2.2741   -6.9246 C.3       5 UNK         0.0660 
     19 N          26.0266   -2.0367   -6.7004 N.am      5 UNK        -0.4015 
     20 C          25.0766   -2.1913   -7.6323 C.2       4 UNK         0.4946 
     21 O          25.2579   -2.7708   -8.7037 O.2       4 UNK        -0.5353 
     22 CA         23.6884   -1.5756   -7.3564 C.3       4 UNK         0.0277 
     23 CB         22.6664   -2.6801   -7.0398 C.3       4 UNK        -0.1981 
     24 N          23.6572   -0.5793   -6.2810 N.am      4 UNK        -0.4209 
     25 C          24.3827    0.5473   -6.2119 C.2       3 UNK         0.4942 
     26 O          25.1390    0.9358   -7.1021 O.2       3 UNK        -0.5208 
     27 CA         24.3331    1.3184   -4.8806 C.3       3 UNK         0.0250 
     28 CB         23.3006    2.4533   -4.9569 C.3       3 UNK        -0.1990 
     29 N          24.0445    0.4689   -3.7158 N.am      3 UNK        -0.4232 
     30 C          24.7731   -0.5876   -3.3261 C.2       2 UNK         0.4993 
     31 O          25.8026   -0.9664   -3.8975 O.2       2 UNK        -0.5286 
     32 CA         24.2077   -1.4109   -2.1668 C.3       2 UNK         0.0209 
     33 CB         23.1642   -2.4145   -2.7005 C.3       2 UNK        -0.1931 
     34 N          25.3148   -2.1114   -1.5249 N.am      2 UNK        -0.4546 
     35 C          25.2702   -2.7741   -0.3643 C.2       1 UNK         0.5154 
     36 O          24.2471   -2.8794    0.3168 O.2       1 UNK        -0.5181 
     37 C          28.2278   -0.9685   -6.6814 C.2       5 UNK         0.5014 
     38 O          28.9706   -0.5403   -7.5659 O.2       5 UNK        -0.5248 
     39 N          28.0279   -0.3373   -5.5147 N.am      6 UNK        -0.4434 
     40 CA         28.8268    0.7914   -5.0270 C.3       6 UNK         0.0363 
     41 CB         28.4244    1.1108   -3.5796 C.3       6 UNK        -0.1936 
     42 C          28.7936    2.0643   -5.8900 C.2       6 UNK         0.5081 
     43 O          29.7575    2.8290   -5.8421 O.2       6 UNK        -0.5248 
     44 N          27.7143    2.2743   -6.6534 N.am      7 UNK        -0.4718 
     45 CA         27.5666    3.3994   -7.5778 C.3       7 UNK         0.0273 
     46 CB         26.3218    4.2184   -7.1967 C.3       7 UNK        -0.1935 
     47 C          27.4730    2.9174   -9.0312 C.2       7 UNK         0.5018 
     48 O          28.0911    3.5282   -9.9032 O.2       7 UNK        -0.5186 
     49 N          26.6941    1.8531   -9.2757 N.am      8 UNK        -0.4240 
     50 CA         26.4111    1.3350  -10.6163 C.3       8 UNK         0.0235 
     51 CB         25.2043    0.3882  -10.5610 C.3       8 UNK        -0.2000 
     52 C          27.6145    0.6491  -11.2840 C.2       8 UNK         0.4941 
     53 O          27.8133    0.8417  -12.4845 O.2       8 UNK        -0.5273 
     54 N          28.3908   -0.1258  -10.5128 N.am      9 UNK        -0.4262 
     55 CA         29.6461   -0.7306  -10.9699 C.3       9 UNK         0.0264 
     56 CB         29.7966   -2.1532  -10.4017 C.3       9 UNK        -0.1955 
     57 C          30.8306    0.1617  -10.5736 C.2       9 UNK         0.5031 
     58 O          31.6746    0.4510  -11.4235 O.2       9 UNK        -0.5390 
     59 N          30.8284    0.6079   -9.3079 N.am      10 UNK        -0.4204 
     60 CA         31.7819    1.5035   -8.6463 C.3       10 UNK         0.0237 
     61 CB         31.8750    2.8592   -9.3790 C.3       10 UNK        -0.1985 
     62 C          33.1686    0.8770   -8.4092 C.2       10 UNK         0.4970 
     63 O          33.4913   -0.1854   -8.9448 O.2       10 UNK        -0.4914 
     64 N          33.9515    1.5592   -7.5676 N.am      11 UNK        -0.4285 
     65 CA         35.3063    1.1730   -7.1415 C.3       11 UNK         0.1007 
     66 C          36.3927    2.1943   -7.5916 C.2       11 UNK         0.5703 
     67 N          36.0728    3.1993   -8.3997 N.am      11 UNK        -0.7361 
     68 O          37.5571    2.0639   -7.2209 O.2       11 UNK        -0.4986 
     69 C69        35.3471    0.9105   -5.6098 C.3       12 UNK        -0.0947 
     70 S70        34.5046   -0.6366   -5.1388 S.3       12 UNK        -0.2240 
     71 C71        32.8224   -0.0576   -4.7554 C.3       12 UNK         0.0194 
     72 H72        27.1525   -7.7251    1.3728 H         1 UNK         0.0906 
     73 H73        26.1146   -7.1051    2.6596 H         1 UNK         0.0906 
     74 H74        25.5039   -7.2135    1.0076 H         1 UNK         0.0906 
     75 H75        25.3958   -5.1850    0.0459 H         1 UNK         0.3140 
     76 H76        26.8148   -2.9401    1.0638 H         1 UNK         0.1085 
     77 H77        28.5285   -4.0814   -0.5575 H         1 UNK         0.0836 
     78 H78        27.5247   -3.5458   -1.8651 H         1 UNK         0.0836 
     79 H79        30.9189   -1.3453   -0.3151 H         1 UNK         0.0731 
     80 H80        30.5640   -3.0480   -0.3491 H         1 UNK         0.0731 
     81 H81        31.8205   -0.2813   -2.2315 H         1 UNK         0.1312 
     82 H82        31.9378   -2.3164   -6.0044 H         1 UNK         0.1406 
     83 H83        29.8654   -4.0683   -2.6833 H         1 UNK         0.1631 
     84 H84        29.9373   -5.2678   -4.7115 H         1 UNK         0.0717 
     85 H85        31.4222   -5.0244   -5.5961 H         1 UNK         0.0717 
     86 H86        27.2661   -4.2761   -6.0922 H         1 UNK         0.0934 
     87 H87        28.1141   -3.1806   -5.0375 H         1 UNK         0.0934 
     88 H88        27.6031   -2.5203   -7.9780 H         1 UNK         0.0739 
     89 H89        25.7815   -1.5773   -5.8302 H         1 UNK         0.3093 
     90 H90        23.3779   -1.0706   -8.2734 H         1 UNK         0.0818 
     91 H91        21.6593   -2.2747   -6.9408 H         1 UNK         0.0819 
     92 H92        22.6349   -3.4241   -7.8373 H         1 UNK         0.0819 
     93 H93        22.9119   -3.2046   -6.1154 H         1 UNK         0.0819 
     94 H94        23.0664   -0.7980   -5.4928 H         1 UNK         0.3041 
     95 H95        25.3179    1.7637   -4.7290 H         1 UNK         0.0784 
     96 H96        23.4978    3.1072   -5.8073 H         1 UNK         0.0793 
     97 H97        22.2854    2.0707   -5.0703 H         1 UNK         0.0793 
     98 H98        23.3278    3.0752   -4.0619 H         1 UNK         0.0793 
     99 H99        23.2100    0.6988   -3.1943 H         1 UNK         0.3024 
    100 H100       23.7465   -0.7387   -1.4398 H         1 UNK         0.1171 
    101 H101       22.3485   -1.9030   -3.2128 H         1 UNK         0.0786 
    102 H102       22.7142   -2.9957   -1.8959 H         1 UNK         0.0786 
    103 H103       23.6075   -3.1157   -3.4090 H         1 UNK         0.0786 
    104 H104       26.1958   -2.0272   -2.0192 H         1 UNK         0.2977 
    105 H105       27.3467   -0.7069   -4.8549 H         1 UNK         0.3127 
    106 H106       29.8641    0.4560   -5.0162 H         1 UNK         0.0770 
    107 H107       27.3834    1.4248   -3.5072 H         1 UNK         0.0814 
    108 H108       29.0387    1.9136   -3.1699 H         1 UNK         0.0814 
    109 H109       28.5589    0.2430   -2.9353 H         1 UNK         0.0814 
    110 H110       26.9668    1.5893   -6.6507 H         1 UNK         0.2983 
    111 H111       28.4321    4.0630   -7.5175 H         1 UNK         0.0947 
    112 H112       26.2139    5.0867   -7.8480 H         1 UNK         0.0806 
    113 H113       26.3890    4.5870   -6.1731 H         1 UNK         0.0806 
    114 H114       25.4065    3.6328   -7.2824 H         1 UNK         0.0806 
    115 H115       26.1681    1.4449   -8.5054 H         1 UNK         0.3000 
    116 H116       26.1337    2.1857  -11.2430 H         1 UNK         0.0850 
    117 H117       24.9203    0.0590  -11.5614 H         1 UNK         0.0810 
    118 H118       24.3344    0.8729  -10.1172 H         1 UNK         0.0810 
    119 H119       25.4275   -0.5027   -9.9781 H         1 UNK         0.0810 
    120 H120       28.1843   -0.2010   -9.5244 H         1 UNK         0.3040 
    121 H121       29.6420   -0.8173  -12.0587 H         1 UNK         0.0766 
    122 H122       30.6833   -2.6378  -10.8121 H         1 UNK         0.0812 
    123 H123       28.9391   -2.7755  -10.6577 H         1 UNK         0.0812 
    124 H124       29.9034   -2.1617   -9.3177 H         1 UNK         0.0812 
    125 H125       30.1154    0.2242   -8.6869 H         1 UNK         0.3205 
    126 H126       31.3540    1.6876   -7.6607 H         1 UNK         0.0754 
    127 H127       32.4216    3.5945   -8.7881 H         1 UNK         0.0769 
    128 H128       30.8844    3.2747   -9.5651 H         1 UNK         0.0769 
    129 H129       32.3853    2.7701  -10.3385 H         1 UNK         0.0769 
    130 H130       33.6099    2.4252   -7.1766 H         1 UNK         0.2981 
    131 H131       35.5940    0.2467   -7.6416 H         1 UNK         0.0541 
    132 H132       35.1355    3.3012   -8.7522 H         1 UNK         0.3459 
    133 H133       36.7917    3.8451   -8.6864 H         1 UNK         0.3459 
    134 H134       34.9246    1.7506   -5.0562 H         1 UNK         0.0612 
    135 H135       36.3759    0.8092   -5.2600 H         1 UNK         0.0612 
    136 H136       32.8793    0.7806   -4.0593 H         1 UNK         0.0624 
    137 H137       32.3431    0.3186   -5.6581 H         1 UNK         0.0624 
@<TRIPOS>BOND
     1    1    2 1    
     2    1   72 1    
     3    1   73 1    
     4    1   74 1    
     5    2    3 2    
     6    2    4 am   BACKBONE|DICT|INTERRES
     7    4    5 1    
     8    4   75 1    
     9    5    6 1    
    10    5   35 1    
    11    5   76 1    
    12    6    7 1    
    13    6   77 1    
    14    6   78 1    
    15    7    8 1    
    16    8    9 1    
    17    8   79 1    
    18    8   80 1    
    19    9   10 ar   
    20    9   14 ar   
    21   10   11 ar   
    22   10   81 1    
    23   11   12 ar   
    24   11   71 1    
    25   12   13 ar   
    26   12   82 1    
    27   13   14 ar   
    28   13   15 1    
    29   14   83 1    
    30   15   16 1    
    31   15   84 1    
    32   15   85 1    
    33   16   17 1    
    34   17   18 1    
    35   17   86 1    
    36   17   87 1    
    37   18   19 1    
    38   18   37 1    
    39   18   88 1    
    40   19   20 am   BACKBONE|DICT|INTERRES
    41   19   89 1    
    42   20   21 2    
    43   20   22 1    
    44   22   23 1    
    45   22   24 1    
    46   22   90 1    
    47   23   91 1    
    48   23   92 1    
    49   23   93 1    
    50   24   25 am   BACKBONE|DICT|INTERRES
    51   24   94 1    
    52   25   26 2    
    53   25   27 1    
    54   27   28 1    
    55   27   29 1    
    56   27   95 1    
    57   28   96 1    
    58   28   97 1    
    59   28   98 1    
    60   29   30 am   BACKBONE|DICT|INTERRES
    61   29   99 1    
    62   30   31 2    
    63   30   32 1    
    64   32   33 1    
    65   32   34 1    
    66   32  100 1    
    67   33  101 1    
    68   33  102 1    
    69   33  103 1    
    70   34   35 am   BACKBONE|DICT|INTERRES
    71   34  104 1    
    72   35   36 2    
    73   37   38 2    
    74   37   39 am   BACKBONE|DICT|INTERRES
    75   39   40 1    
    76   39  105 1    
    77   40   41 1    
    78   40   42 1    
    79   40  106 1    
    80   41  107 1    
    81   41  108 1    
    82   41  109 1    
    83   42   43 2    
    84   42   44 am   BACKBONE|DICT|INTERRES
    85   44   45 1    
    86   44  110 1    
    87   45   46 1    
    88   45   47 1    
    89   45  111 1    
    90   46  112 1    
    91   46  113 1    
    92   46  114 1    
    93   47   48 2    
    94   47   49 am   BACKBONE|DICT|INTERRES
    95   49   50 1    
    96   49  115 1    
    97   50   51 1    
    98   50   52 1    
    99   50  116 1    
   100   51  117 1    
   101   51  118 1    
   102   51  119 1    
   103   52   53 2    
   104   52   54 am   BACKBONE|DICT|INTERRES
   105   54   55 1    
   106   54  120 1    
   107   55   56 1    
   108   55   57 1    
   109   55  121 1    
   110   56  122 1    
   111   56  123 1    
   112   56  124 1    
   113   57   58 2    
   114   57   59 am   BACKBONE|DICT|INTERRES
   115   59   60 1    
   116   59  125 1    
   117   60   61 1    
   118   60   62 1    
   119   60  126 1    
   120   61  127 1    
   121   61  128 1    
   122   61  129 1    
   123   62   63 2    
   124   62   64 am   BACKBONE|DICT|INTERRES
   125   64   65 1    
   126   64  130 1    
   127   65   66 1    
   128   65   69 1    
   129   65  131 1    
   130   66   67 am   BACKBONE|DICT|INTERRES
   131   66   68 2    
   132   67  132 1    
   133   67  133 1    
   134   69   70 1    
   135   69  134 1    
   136   69  135 1    
   137   70   71 1    
   138   71  136 1    
   139   71  137 1    
@<TRIPOS>SUBSTRUCTURE
     1 UNK         1 GROUP             0       ****    0 ROOT    
