@<TRIPOS>MOLECULE
3R137
137   139    1
SMALL
USER_CHARGES


@<TRIPOS>ATOM
      1 CA         26.0123    1.5894    2.6467 C.3       0 UNK        -0.2020 
      2 C          26.1781    1.2631    1.1697 C.2       0 UNK         0.4855 
      3 O          25.8991    2.1129    0.3235 O.2       0 UNK        -0.5197 
      4 N          26.6381    0.0442    0.8606 N.am      1 UNK        -0.4892 
      5 CA         26.7991   -0.4758   -0.4982 C.3       1 UNK         0.0835 
      6 C6         28.1174   -1.2854   -0.6315 C.3       12 UNK        -0.0855 
      7 S7         28.4868   -1.6951   -2.3661 S.3       12 UNK        -0.2931 
      8 C8         29.9673   -2.7436   -2.1875 C.3       12 UNK         0.0378 
      9 C9         30.3837   -3.3109   -3.5373 C.ar      12 UNK        -0.0802 
     10 C10        31.6272   -3.0085   -4.1047 C.ar      12 UNK        -0.0944 
     11 C11        31.9715   -3.5149   -5.3636 C.ar      12 UNK        -0.0787 
     12 C12        31.0478   -4.2952   -6.0689 C.ar      12 UNK        -0.0862 
     13 C13        29.8061   -4.6071   -5.5075 C.ar      12 UNK        -0.0733 
     14 C14        29.4994   -4.1412   -4.2280 C.ar      12 UNK        -0.0832 
     15 C15        28.7983   -5.4577   -6.2686 C.3       12 UNK         0.0240 
     16 S16        27.7555   -4.4684   -7.3919 S.3       12 UNK        -0.2522 
     17 C17        26.7571   -3.4589   -6.2352 C.3       12 UNK        -0.0967 
     18 CA         26.7185   -1.9403   -6.5434 C.3       5 UNK         0.0660 
     19 N          25.8686   -1.2243   -5.5842 N.am      5 UNK        -0.4015 
     20 C          25.5101    0.0669   -5.6866 C.2       4 UNK         0.4946 
     21 O          25.9200    0.8097   -6.5814 O.2       4 UNK        -0.5353 
     22 CA         24.5521    0.6283   -4.6120 C.3       4 UNK         0.0277 
     23 CB         23.8039    1.8928   -5.0841 C.3       4 UNK        -0.1981 
     24 N          23.6135   -0.3713   -4.0875 N.am      4 UNK        -0.4209 
     25 C          22.7312   -1.1040   -4.7893 C.2       3 UNK         0.4942 
     26 O          22.4839   -0.9168   -5.9817 O.2       3 UNK        -0.5208 
     27 CA         22.0296   -2.2652   -4.0473 C.3       3 UNK         0.0250 
     28 CB         21.7490   -3.4616   -4.9820 C.3       3 UNK        -0.1990 
     29 N          22.7291   -2.7259   -2.8371 N.am      3 UNK        -0.4232 
     30 C          23.9952   -3.1620   -2.7486 C.2       2 UNK         0.4993 
     31 O          24.7739   -3.2374   -3.7019 O.2       2 UNK        -0.5286 
     32 CA         24.5061   -3.4874   -1.3366 C.3       2 UNK         0.0209 
     33 CB         25.0100   -4.9384   -1.2609 C.3       2 UNK        -0.1931 
     34 N          25.5880   -2.5821   -0.9402 N.am      2 UNK        -0.4546 
     35 C          25.5149   -1.2433   -0.8843 C.2       1 UNK         0.5154 
     36 O          24.4840   -0.6111   -1.1284 O.2       1 UNK        -0.5181 
     37 C          28.1090   -1.2872   -6.7217 C.2       5 UNK         0.5014 
     38 O          28.5882   -1.2241   -7.8531 O.2       5 UNK        -0.5248 
     39 N          28.6878   -0.7225   -5.6493 N.am      6 UNK        -0.4434 
     40 CA         29.9268    0.0621   -5.7067 C.3       6 UNK         0.0363 
     41 CB         30.3595    0.4989   -4.2979 C.3       6 UNK        -0.1936 
     42 C          29.8475    1.2993   -6.6151 C.2       6 UNK         0.5081 
     43 O          30.8472    1.6346   -7.2472 O.2       6 UNK        -0.5248 
     44 N          28.6806    1.9548   -6.6787 N.am      7 UNK        -0.4718 
     45 CA         28.4505    3.1027   -7.5577 C.3       7 UNK         0.0273 
     46 CB         27.2487    3.9191   -7.0553 C.3       7 UNK        -0.1935 
     47 C          28.2476    2.6618   -9.0144 C.2       7 UNK         0.5018 
     48 O          28.7523    3.3259   -9.9195 O.2       7 UNK        -0.5186 
     49 N          27.5398    1.5400   -9.2108 N.am      8 UNK        -0.4240 
     50 CA         27.2937    0.9308  -10.5201 C.3       8 UNK         0.0235 
     51 CB         26.2189   -0.1607  -10.3878 C.3       8 UNK        -0.2000 
     52 C          28.5724    0.3667  -11.1639 C.2       8 UNK         0.4941 
     53 O          28.8145    0.6123  -12.3460 O.2       8 UNK        -0.5273 
     54 N          29.3695   -0.3668  -10.3758 N.am      9 UNK        -0.4262 
     55 CA         30.6316   -0.9806  -10.7968 C.3       9 UNK         0.0264 
     56 CB         30.9098   -2.1990   -9.9008 C.3       9 UNK        -0.1955 
     57 C          31.8281   -0.0099  -10.7851 C.2       9 UNK         0.5031 
     58 O          32.8779   -0.3646  -11.3238 O.2       9 UNK        -0.5390 
     59 N          31.6582    1.1774  -10.1823 N.am      10 UNK        -0.4204 
     60 CA         32.6585    2.2351   -9.9858 C.3       10 UNK         0.0237 
     61 CB         33.1070    2.8380  -11.3346 C.3       10 UNK        -0.1985 
     62 C          33.8324    1.7713   -9.1000 C.2       10 UNK         0.4970 
     63 O          34.9976    1.9510   -9.4603 O.2       10 UNK        -0.4914 
     64 N          33.4884    1.1799   -7.9511 N.am      11 UNK        -0.4285 
     65 CA         34.4243    0.6947   -6.9252 C.3       11 UNK         0.1007 
     66 C          34.9693    1.8141   -5.9922 C.2       11 UNK         0.5703 
     67 N          34.4179    3.0225   -6.0056 N.am      11 UNK        -0.7361 
     68 O          35.9200    1.5835   -5.2486 O.2       11 UNK        -0.4986 
     69 C69        33.8151   -0.4691   -6.0977 C.3       12 UNK        -0.0947 
     70 S70        33.3588   -1.8903   -7.1447 S.3       12 UNK        -0.2240 
     71 C71        33.3532   -3.2631   -5.9521 C.3       12 UNK         0.0194 
     72 H72        24.9712    1.8278    2.8631 H         1 UNK         0.0906 
     73 H73        26.3094    0.7581    3.2859 H         1 UNK         0.0906 
     74 H74        26.6214    2.4536    2.9107 H         1 UNK         0.0906 
     75 H75        26.8229   -0.6140    1.6052 H         1 UNK         0.3140 
     76 H76        26.8693    0.3634   -1.1946 H         1 UNK         0.1085 
     77 H77        28.9500   -0.6881   -0.2554 H         1 UNK         0.0836 
     78 H78        28.1037   -2.1916   -0.0234 H         1 UNK         0.0836 
     79 H79        29.7568   -3.5648   -1.5009 H         1 UNK         0.0731 
     80 H80        30.7737   -2.1577   -1.7437 H         1 UNK         0.0731 
     81 H81        32.3295   -2.3863   -3.5672 H         1 UNK         0.1312 
     82 H82        31.3008   -4.6693   -7.0517 H         1 UNK         0.1406 
     83 H83        28.5525   -4.3946   -3.7716 H         1 UNK         0.1631 
     84 H84        28.1600   -6.0080   -5.5755 H         1 UNK         0.0717 
     85 H85        29.3264   -6.2109   -6.8553 H         1 UNK         0.0717 
     86 H86        25.7402   -3.8540   -6.2659 H         1 UNK         0.0934 
     87 H87        27.0846   -3.6164   -5.2111 H         1 UNK         0.0934 
     88 H88        26.2191   -1.8353   -7.5084 H         1 UNK         0.0739 
     89 H89        25.4742   -1.7895   -4.8363 H         1 UNK         0.3093 
     90 H90        25.1844    0.9161   -3.7707 H         1 UNK         0.0818 
     91 H91        23.1416    2.2757   -4.3078 H         1 UNK         0.0819 
     92 H92        24.5035    2.6914   -5.3336 H         1 UNK         0.0819 
     93 H93        23.2035    1.6988   -5.9735 H         1 UNK         0.0819 
     94 H94        23.7300   -0.5932   -3.1035 H         1 UNK         0.3041 
     95 H95        21.0687   -1.8702   -3.7145 H         1 UNK         0.0784 
     96 H96        21.1093   -3.1699   -5.8159 H         1 UNK         0.0793 
     97 H97        22.6693   -3.8670   -5.4044 H         1 UNK         0.0793 
     98 H98        21.2393   -4.2674   -4.4539 H         1 UNK         0.0793 
     99 H99        22.1934   -2.6540   -1.9825 H         1 UNK         0.3024 
    100 H100       23.6900   -3.3678   -0.6207 H         1 UNK         0.1171 
    101 H101       25.3252   -5.1983   -0.2502 H         1 UNK         0.0786 
    102 H102       24.2237   -5.6394   -1.5445 H         1 UNK         0.0786 
    103 H103       25.8543   -5.1083   -1.9308 H         1 UNK         0.0786 
    104 H104       26.4878   -3.0103   -0.7807 H         1 UNK         0.2977 
    105 H105       28.2602   -0.8398   -4.7410 H         1 UNK         0.3127 
    106 H106       30.6974   -0.5916   -6.1192 H         1 UNK         0.0770 
    107 H107       29.5545    1.0048   -3.7641 H         1 UNK         0.0814 
    108 H108       31.2042    1.1884   -4.3390 H         1 UNK         0.0814 
    109 H109       30.6827   -0.3501   -3.7005 H         1 UNK         0.0814 
    110 H110       27.8714    1.5761   -6.2011 H         1 UNK         0.2983 
    111 H111       29.3312    3.7486   -7.5247 H         1 UNK         0.0947 
    112 H112       27.1112    4.8163   -7.6602 H         1 UNK         0.0806 
    113 H113       27.3911    4.2424   -6.0241 H         1 UNK         0.0806 
    114 H114       26.3191    3.3519   -7.1042 H         1 UNK         0.0806 
    115 H115       27.1510    1.0726   -8.3993 H         1 UNK         0.3000 
    116 H116       26.9055    1.7095  -11.1803 H         1 UNK         0.0850 
    117 H117       25.9706   -0.5812  -11.3631 H         1 UNK         0.0810 
    118 H118       25.2978    0.2373   -9.9613 H         1 UNK         0.0810 
    119 H119       26.5526   -0.9835   -9.7554 H         1 UNK         0.0810 
    120 H120       29.0680   -0.5699   -9.4208 H         1 UNK         0.3040 
    121 H121       30.5201   -1.3381  -11.8226 H         1 UNK         0.0766 
    122 H122       30.9895   -1.9124   -8.8522 H         1 UNK         0.0812 
    123 H123       31.8431   -2.6911  -10.1776 H         1 UNK         0.0812 
    124 H124       30.1141   -2.9400   -9.9797 H         1 UNK         0.0812 
    125 H125       30.7641    1.3443   -9.7408 H         1 UNK         0.3205 
    126 H126       32.1531    3.0261   -9.4294 H         1 UNK         0.0754 
    127 H127       33.7554    3.7010  -11.1786 H         1 UNK         0.0769 
    128 H128       32.2519    3.1769  -11.9197 H         1 UNK         0.0769 
    129 H129       33.6632    2.1201  -11.9381 H         1 UNK         0.0769 
    130 H130       32.5000    1.1468   -7.7075 H         1 UNK         0.2981 
    131 H131       35.2989    0.2960   -7.4427 H         1 UNK         0.0541 
    132 H132       33.6313    3.2172   -6.6037 H         1 UNK         0.3459 
    133 H133       34.7848    3.7400   -5.4006 H         1 UNK         0.3459 
    134 H134       32.9352   -0.1358   -5.5485 H         1 UNK         0.0612 
    135 H135       34.5322   -0.8118   -5.3498 H         1 UNK         0.0612 
    136 H136       33.6905   -4.1633   -6.4679 H         1 UNK         0.0624 
    137 H137       34.0829   -3.0842   -5.1614 H         1 UNK         0.0624 
@<TRIPOS>BOND
     1    1    2 1    
     2    1   72 1    
     3    1   73 1    
     4    1   74 1    
     5    2    3 2    
     6    2    4 am   BACKBONE|DICT|INTERRES
     7    4    5 1    
     8    4   75 1    
     9    5    6 1    
    10    5   35 1    
    11    5   76 1    
    12    6    7 1    
    13    6   77 1    
    14    6   78 1    
    15    7    8 1    
    16    8    9 1    
    17    8   79 1    
    18    8   80 1    
    19    9   10 ar   
    20    9   14 ar   
    21   10   11 ar   
    22   10   81 1    
    23   11   12 ar   
    24   11   71 1    
    25   12   13 ar   
    26   12   82 1    
    27   13   14 ar   
    28   13   15 1    
    29   14   83 1    
    30   15   16 1    
    31   15   84 1    
    32   15   85 1    
    33   16   17 1    
    34   17   18 1    
    35   17   86 1    
    36   17   87 1    
    37   18   19 1    
    38   18   37 1    
    39   18   88 1    
    40   19   20 am   BACKBONE|DICT|INTERRES
    41   19   89 1    
    42   20   21 2    
    43   20   22 1    
    44   22   23 1    
    45   22   24 1    
    46   22   90 1    
    47   23   91 1    
    48   23   92 1    
    49   23   93 1    
    50   24   25 am   BACKBONE|DICT|INTERRES
    51   24   94 1    
    52   25   26 2    
    53   25   27 1    
    54   27   28 1    
    55   27   29 1    
    56   27   95 1    
    57   28   96 1    
    58   28   97 1    
    59   28   98 1    
    60   29   30 am   BACKBONE|DICT|INTERRES
    61   29   99 1    
    62   30   31 2    
    63   30   32 1    
    64   32   33 1    
    65   32   34 1    
    66   32  100 1    
    67   33  101 1    
    68   33  102 1    
    69   33  103 1    
    70   34   35 am   BACKBONE|DICT|INTERRES
    71   34  104 1    
    72   35   36 2    
    73   37   38 2    
    74   37   39 am   BACKBONE|DICT|INTERRES
    75   39   40 1    
    76   39  105 1    
    77   40   41 1    
    78   40   42 1    
    79   40  106 1    
    80   41  107 1    
    81   41  108 1    
    82   41  109 1    
    83   42   43 2    
    84   42   44 am   BACKBONE|DICT|INTERRES
    85   44   45 1    
    86   44  110 1    
    87   45   46 1    
    88   45   47 1    
    89   45  111 1    
    90   46  112 1    
    91   46  113 1    
    92   46  114 1    
    93   47   48 2    
    94   47   49 am   BACKBONE|DICT|INTERRES
    95   49   50 1    
    96   49  115 1    
    97   50   51 1    
    98   50   52 1    
    99   50  116 1    
   100   51  117 1    
   101   51  118 1    
   102   51  119 1    
   103   52   53 2    
   104   52   54 am   BACKBONE|DICT|INTERRES
   105   54   55 1    
   106   54  120 1    
   107   55   56 1    
   108   55   57 1    
   109   55  121 1    
   110   56  122 1    
   111   56  123 1    
   112   56  124 1    
   113   57   58 2    
   114   57   59 am   BACKBONE|DICT|INTERRES
   115   59   60 1    
   116   59  125 1    
   117   60   61 1    
   118   60   62 1    
   119   60  126 1    
   120   61  127 1    
   121   61  128 1    
   122   61  129 1    
   123   62   63 2    
   124   62   64 am   BACKBONE|DICT|INTERRES
   125   64   65 1    
   126   64  130 1    
   127   65   66 1    
   128   65   69 1    
   129   65  131 1    
   130   66   67 am   BACKBONE|DICT|INTERRES
   131   66   68 2    
   132   67  132 1    
   133   67  133 1    
   134   69   70 1    
   135   69  134 1    
   136   69  135 1    
   137   70   71 1    
   138   71  136 1    
   139   71  137 1    
@<TRIPOS>SUBSTRUCTURE
     1 UNK         1 GROUP             0       ****    0 ROOT    
