@<TRIPOS>MOLECULE
3R137
137   139    1
SMALL
USER_CHARGES


@<TRIPOS>ATOM
      1 CA         30.8805    1.4252   -2.3963 C.3       0 UNK        -0.2020 
      2 C          30.0138    0.1989   -2.6346 C.2       0 UNK         0.4855 
      3 O          29.2181    0.1868   -3.5729 O.2       0 UNK        -0.5197 
      4 N          30.1479   -0.8251   -1.7824 N.am      1 UNK        -0.4892 
      5 CA         29.2629   -1.9949   -1.7397 C.3       1 UNK         0.0835 
      6 C6         29.8347   -3.1393   -0.8609 C.3       12 UNK        -0.0855 
      7 S7         31.5604   -3.6020   -1.2426 S.3       12 UNK        -0.2931 
      8 C8         31.3681   -5.1769   -2.1357 C.3       12 UNK         0.0378 
      9 C9         31.1801   -4.9445   -3.6258 C.ar      12 UNK        -0.0802 
     10 C10        32.2911   -4.6755   -4.4292 C.ar      12 UNK        -0.0944 
     11 C11        32.1391   -4.4471   -5.7988 C.ar      12 UNK        -0.0787 
     12 C12        30.8627   -4.4934   -6.3661 C.ar      12 UNK        -0.0862 
     13 C13        29.7424   -4.7717   -5.5759 C.ar      12 UNK        -0.0733 
     14 C14        29.9098   -5.0047   -4.2051 C.ar      12 UNK        -0.0832 
     15 C15        28.3629   -4.8445   -6.2223 C.3       12 UNK         0.0240 
     16 S16        27.0758   -3.9510   -5.2925 S.3       12 UNK        -0.2522 
     17 C17        27.6446   -2.2232   -5.4193 C.3       12 UNK        -0.0967 
     18 CA         26.9762   -1.4491   -6.5769 C.3       5 UNK         0.0660 
     19 N          25.5073   -1.4604   -6.5079 N.am      5 UNK        -0.4015 
     20 C          24.7053   -0.9358   -7.4488 C.2       4 UNK         0.4946 
     21 O          25.1284   -0.3753   -8.4595 O.2       4 UNK        -0.5353 
     22 CA         23.1835   -1.0013   -7.2422 C.3       4 UNK         0.0277 
     23 CB         22.5906   -2.1735   -8.0396 C.3       4 UNK        -0.1981 
     24 N          22.7562   -1.1003   -5.8466 N.am      4 UNK        -0.4209 
     25 C          22.9960   -0.1972   -4.8860 C.2       3 UNK         0.4942 
     26 O          23.6483    0.8340   -5.0588 O.2       3 UNK        -0.5208 
     27 CA         22.4380   -0.5090   -3.4827 C.3       3 UNK         0.0250 
     28 CB         21.4315   -1.6829   -3.4493 C.3       3 UNK        -0.1990 
     29 N          23.4984   -0.7397   -2.4948 N.am      3 UNK        -0.4232 
     30 C          24.5385   -1.5791   -2.6060 C.2       2 UNK         0.4993 
     31 O          24.7870   -2.2552   -3.6071 O.2       2 UNK        -0.5286 
     32 CA         25.4287   -1.7130   -1.3685 C.3       2 UNK         0.0209 
     33 CB         24.8880   -2.8016   -0.4247 C.3       2 UNK        -0.1931 
     34 N          26.7908   -2.0569   -1.7747 N.am      2 UNK        -0.4546 
     35 C          27.8864   -1.5631   -1.1879 C.2       1 UNK         0.5154 
     36 O          27.8462   -0.8075   -0.2118 O.2       1 UNK        -0.5181 
     37 C          27.5534   -0.0216   -6.6481 C.2       5 UNK         0.5014 
     38 O          28.5339    0.1965   -7.3632 O.2       5 UNK        -0.5248 
     39 N          26.9101    0.9251   -5.9483 N.am      6 UNK        -0.4434 
     40 CA         27.2739    2.3422   -5.9273 C.3       6 UNK         0.0363 
     41 CB         26.5380    3.0340   -4.7698 C.3       6 UNK        -0.1936 
     42 C          26.9977    3.0642   -7.2580 C.2       6 UNK         0.5081 
     43 O          27.6384    4.0782   -7.5321 O.2       6 UNK        -0.5248 
     44 N          26.0634    2.5395   -8.0614 N.am      7 UNK        -0.4718 
     45 CA         25.7888    3.0156   -9.4164 C.3       7 UNK         0.0273 
     46 CB         24.2969    2.8222   -9.7360 C.3       7 UNK        -0.1935 
     47 C          26.6656    2.2835  -10.4430 C.2       7 UNK         0.5018 
     48 O          27.1755    2.9200  -11.3656 O.2       7 UNK        -0.5186 
     49 N          26.8108    0.9619  -10.2724 N.am      8 UNK        -0.4240 
     50 CA         27.5184    0.0720  -11.1907 C.3       8 UNK         0.0235 
     51 CB         27.1688   -1.3880  -10.8591 C.3       8 UNK        -0.2000 
     52 C          29.0424    0.2624  -11.2081 C.2       8 UNK         0.4941 
     53 O          29.6303    0.1710  -12.2875 O.2       8 UNK        -0.5273 
     54 N          29.6612    0.4867  -10.0392 N.am      9 UNK        -0.4262 
     55 CA         31.1216    0.5332   -9.9104 C.3       9 UNK         0.0264 
     56 CB         31.6727   -0.8921   -9.7236 C.3       9 UNK        -0.1955 
     57 C          31.6287    1.4593   -8.7971 C.2       9 UNK         0.5031 
     58 O          32.6451    2.1219   -9.0099 O.2       9 UNK        -0.5390 
     59 N          30.9491    1.4801   -7.6392 N.am      10 UNK        -0.4204 
     60 CA         31.3319    2.1880   -6.4078 C.3       10 UNK         0.0237 
     61 CB         31.1958    3.7154   -6.5829 C.3       10 UNK        -0.1985 
     62 C          32.7229    1.7640   -5.8918 C.2       10 UNK         0.4970 
     63 O          33.5863    2.6129   -5.6612 O.2       10 UNK        -0.4914 
     64 N          32.9089    0.4460   -5.7511 N.am      11 UNK        -0.4285 
     65 CA         34.1528   -0.2136   -5.3262 C.3       11 UNK         0.1007 
     66 C          34.6621    0.2501   -3.9337 C.2       11 UNK         0.5703 
     67 N          35.9629    0.4621   -3.7852 N.am      11 UNK        -0.7361 
     68 O          33.8974    0.3703   -2.9796 O.2       11 UNK        -0.4986 
     69 C69        33.9939   -1.7539   -5.3479 C.3       12 UNK        -0.0947 
     70 S70        33.5530   -2.3856   -7.0000 S.3       12 UNK        -0.2240 
     71 C71        33.3559   -4.1618   -6.6666 C.3       12 UNK         0.0194 
     72 H72        31.5518    1.2905   -1.5483 H         1 UNK         0.0906 
     73 H73        31.4879    1.6363   -3.2730 H         1 UNK         0.0906 
     74 H74        30.2533    2.2941   -2.1997 H         1 UNK         0.0906 
     75 H75        30.8238   -0.7687   -1.0343 H         1 UNK         0.3140 
     76 H76        29.1434   -2.3666   -2.7594 H         1 UNK         0.1085 
     77 H77        29.8173   -2.8519    0.1928 H         1 UNK         0.0836 
     78 H78        29.1963   -4.0217   -0.9336 H         1 UNK         0.0836 
     79 H79        30.5438   -5.7574   -1.7189 H         1 UNK         0.0731 
     80 H80        32.2655   -5.7772   -1.9775 H         1 UNK         0.0731 
     81 H81        33.2755   -4.6332   -3.9831 H         1 UNK         0.1312 
     82 H82        30.7465   -4.3165   -7.4269 H         1 UNK         0.1406 
     83 H83        29.0494   -5.2280   -3.5892 H         1 UNK         0.1631 
     84 H84        28.0716   -5.8924   -6.3019 H         1 UNK         0.0717 
     85 H85        28.3885   -4.4527   -7.2405 H         1 UNK         0.0717 
     86 H86        27.4275   -1.7277   -4.4730 H         1 UNK         0.0934 
     87 H87        28.7320   -2.2051   -5.5197 H         1 UNK         0.0934 
     88 H88        27.2508   -1.9474   -7.5081 H         1 UNK         0.0739 
     89 H89        25.1005   -1.8887   -5.6819 H         1 UNK         0.3093 
     90 H90        22.7694   -0.0732   -7.6419 H         1 UNK         0.0818 
     91 H91        21.5013   -2.1743   -7.9965 H         1 UNK         0.0819 
     92 H92        22.8703   -2.1101   -9.0924 H         1 UNK         0.0819 
     93 H93        22.9443   -3.1356   -7.6665 H         1 UNK         0.0819 
     94 H94        22.2418   -1.9306   -5.5907 H         1 UNK         0.3041 
     95 H95        21.9064    0.3897   -3.1661 H         1 UNK         0.0784 
     96 H96        20.6051   -1.5196   -4.1427 H         1 UNK         0.0793 
     97 H97        21.8993   -2.6363   -3.6987 H         1 UNK         0.0793 
     98 H98        20.9924   -1.7882   -2.4570 H         1 UNK         0.0793 
     99 H99        23.4049   -0.2106   -1.6389 H         1 UNK         0.3024 
    100 H100       25.4235   -0.7520   -0.8480 H         1 UNK         0.1171 
    101 H101       23.8693   -2.5763   -0.1062 H         1 UNK         0.0786 
    102 H102       24.8709   -3.7795   -0.9077 H         1 UNK         0.0786 
    103 H103       25.4974   -2.8834    0.4756 H         1 UNK         0.0786 
    104 H104       26.8540   -2.6413   -2.5991 H         1 UNK         0.2977 
    105 H105       26.0868    0.6636   -5.4216 H         1 UNK         0.3127 
    106 H106       28.3451    2.4108   -5.7342 H         1 UNK         0.0770 
    107 H107       25.4553    2.9869   -4.8942 H         1 UNK         0.0814 
    108 H108       26.8143    4.0874   -4.7059 H         1 UNK         0.0814 
    109 H109       26.7877    2.5754   -3.8126 H         1 UNK         0.0814 
    110 H110       25.6031    1.6840   -7.7779 H         1 UNK         0.2983 
    111 H111       26.0107    4.0832   -9.4858 H         1 UNK         0.0947 
    112 H112       24.0638    3.1873  -10.7372 H         1 UNK         0.0806 
    113 H113       23.6684    3.3731   -9.0363 H         1 UNK         0.0806 
    114 H114       24.0019    1.7731   -9.6957 H         1 UNK         0.0806 
    115 H115       26.2962    0.5119   -9.5170 H         1 UNK         0.3000 
    116 H116       27.1520    0.2831  -12.1978 H         1 UNK         0.0850 
    117 H117       27.6449   -2.0735  -11.5615 H         1 UNK         0.0810 
    118 H118       26.0938   -1.5618  -10.9141 H         1 UNK         0.0810 
    119 H119       27.5013   -1.6635   -9.8583 H         1 UNK         0.0810 
    120 H120       29.1109    0.5374   -9.1864 H         1 UNK         0.3040 
    121 H121       31.5423    0.9343  -10.8354 H         1 UNK         0.0766 
    122 H122       31.2467   -1.3747   -8.8432 H         1 UNK         0.0812 
    123 H123       32.7566   -0.8800   -9.6010 H         1 UNK         0.0812 
    124 H124       31.4544   -1.5201  -10.5873 H         1 UNK         0.0812 
    125 H125       30.1095    0.9052   -7.5566 H         1 UNK         0.3205 
    126 H126       30.6189    1.8779   -5.6431 H         1 UNK         0.0754 
    127 H127       31.3688    4.2330   -5.6387 H         1 UNK         0.0769 
    128 H128       30.1985    3.9890   -6.9232 H         1 UNK         0.0769 
    129 H129       31.9124    4.1075   -7.3052 H         1 UNK         0.0769 
    130 H130       32.1460   -0.1763   -5.9701 H         1 UNK         0.2981 
    131 H131       34.9104    0.0570   -6.0643 H         1 UNK         0.0541 
    132 H132       36.6020    0.3532   -4.5572 H         1 UNK         0.3459 
    133 H133       36.3110    0.7463   -2.8830 H         1 UNK         0.3459 
    134 H134       33.2264   -2.0578   -4.6340 H         1 UNK         0.0612 
    135 H135       34.9200   -2.2423   -5.0387 H         1 UNK         0.0612 
    136 H136       33.2566   -4.6880   -7.6171 H         1 UNK         0.0624 
    137 H137       34.2642   -4.5452   -6.1990 H         1 UNK         0.0624 
@<TRIPOS>BOND
     1    1    2 1    
     2    1   72 1    
     3    1   73 1    
     4    1   74 1    
     5    2    3 2    
     6    2    4 am   BACKBONE|DICT|INTERRES
     7    4    5 1    
     8    4   75 1    
     9    5    6 1    
    10    5   35 1    
    11    5   76 1    
    12    6    7 1    
    13    6   77 1    
    14    6   78 1    
    15    7    8 1    
    16    8    9 1    
    17    8   79 1    
    18    8   80 1    
    19    9   10 ar   
    20    9   14 ar   
    21   10   11 ar   
    22   10   81 1    
    23   11   12 ar   
    24   11   71 1    
    25   12   13 ar   
    26   12   82 1    
    27   13   14 ar   
    28   13   15 1    
    29   14   83 1    
    30   15   16 1    
    31   15   84 1    
    32   15   85 1    
    33   16   17 1    
    34   17   18 1    
    35   17   86 1    
    36   17   87 1    
    37   18   19 1    
    38   18   37 1    
    39   18   88 1    
    40   19   20 am   BACKBONE|DICT|INTERRES
    41   19   89 1    
    42   20   21 2    
    43   20   22 1    
    44   22   23 1    
    45   22   24 1    
    46   22   90 1    
    47   23   91 1    
    48   23   92 1    
    49   23   93 1    
    50   24   25 am   BACKBONE|DICT|INTERRES
    51   24   94 1    
    52   25   26 2    
    53   25   27 1    
    54   27   28 1    
    55   27   29 1    
    56   27   95 1    
    57   28   96 1    
    58   28   97 1    
    59   28   98 1    
    60   29   30 am   BACKBONE|DICT|INTERRES
    61   29   99 1    
    62   30   31 2    
    63   30   32 1    
    64   32   33 1    
    65   32   34 1    
    66   32  100 1    
    67   33  101 1    
    68   33  102 1    
    69   33  103 1    
    70   34   35 am   BACKBONE|DICT|INTERRES
    71   34  104 1    
    72   35   36 2    
    73   37   38 2    
    74   37   39 am   BACKBONE|DICT|INTERRES
    75   39   40 1    
    76   39  105 1    
    77   40   41 1    
    78   40   42 1    
    79   40  106 1    
    80   41  107 1    
    81   41  108 1    
    82   41  109 1    
    83   42   43 2    
    84   42   44 am   BACKBONE|DICT|INTERRES
    85   44   45 1    
    86   44  110 1    
    87   45   46 1    
    88   45   47 1    
    89   45  111 1    
    90   46  112 1    
    91   46  113 1    
    92   46  114 1    
    93   47   48 2    
    94   47   49 am   BACKBONE|DICT|INTERRES
    95   49   50 1    
    96   49  115 1    
    97   50   51 1    
    98   50   52 1    
    99   50  116 1    
   100   51  117 1    
   101   51  118 1    
   102   51  119 1    
   103   52   53 2    
   104   52   54 am   BACKBONE|DICT|INTERRES
   105   54   55 1    
   106   54  120 1    
   107   55   56 1    
   108   55   57 1    
   109   55  121 1    
   110   56  122 1    
   111   56  123 1    
   112   56  124 1    
   113   57   58 2    
   114   57   59 am   BACKBONE|DICT|INTERRES
   115   59   60 1    
   116   59  125 1    
   117   60   61 1    
   118   60   62 1    
   119   60  126 1    
   120   61  127 1    
   121   61  128 1    
   122   61  129 1    
   123   62   63 2    
   124   62   64 am   BACKBONE|DICT|INTERRES
   125   64   65 1    
   126   64  130 1    
   127   65   66 1    
   128   65   69 1    
   129   65  131 1    
   130   66   67 am   BACKBONE|DICT|INTERRES
   131   66   68 2    
   132   67  132 1    
   133   67  133 1    
   134   69   70 1    
   135   69  134 1    
   136   69  135 1    
   137   70   71 1    
   138   71  136 1    
   139   71  137 1    
@<TRIPOS>SUBSTRUCTURE
     1 UNK         1 GROUP             0       ****    0 ROOT    
