@<TRIPOS>MOLECULE
3R137
137   139    1
SMALL
USER_CHARGES


@<TRIPOS>ATOM
      1 CA         23.2591   -5.9885   -0.6367 C.3       0 UNK        -0.2020 
      2 C          24.6434   -5.5076   -0.2269 C.2       0 UNK         0.4855 
      3 O          25.1001   -5.8152    0.8746 O.2       0 UNK        -0.5197 
      4 N          25.3120   -4.7534   -1.1030 N.am      1 UNK        -0.4892 
      5 CA         26.6278   -4.1555   -0.8927 C.3       1 UNK         0.0835 
      6 C6         27.7694   -5.1718   -1.1604 C.3       12 UNK        -0.0855 
      7 S7         29.3853   -4.6396   -0.4910 S.3       12 UNK        -0.2931 
      8 C8         30.5260   -5.0250   -1.8616 C.3       12 UNK         0.0378 
      9 C9         30.3652   -4.0666   -3.0337 C.ar      12 UNK        -0.0802 
     10 C10        30.9819   -2.8108   -3.0086 C.ar      12 UNK        -0.0944 
     11 C11        30.8186   -1.9167   -4.0726 C.ar      12 UNK        -0.0787 
     12 C12        30.0268   -2.2902   -5.1628 C.ar      12 UNK        -0.0862 
     13 C13        29.4247   -3.5489   -5.2098 C.ar      12 UNK        -0.0733 
     14 C14        29.6042   -4.4365   -4.1467 C.ar      12 UNK        -0.0832 
     15 C15        28.5720   -3.9473   -6.4024 C.3       12 UNK         0.0240 
     16 S16        26.8052   -3.7626   -6.0179 S.3       12 UNK        -0.2522 
     17 C17        26.2000   -2.7778   -7.4329 C.3       12 UNK        -0.0967 
     18 CA         26.0251   -1.2631   -7.1175 C.3       5 UNK         0.0660 
     19 N          25.1975   -1.0313   -5.9229 N.am      5 UNK        -0.4015 
     20 C          23.8666   -1.2153   -5.9376 C.2       4 UNK         0.4946 
     21 O          23.2116   -1.3198   -6.9766 O.2       4 UNK        -0.5353 
     22 CA         23.1170   -1.3737   -4.6031 C.3       4 UNK         0.0277 
     23 CB         22.8640   -2.8650   -4.3212 C.3       4 UNK        -0.1981 
     24 N          23.8224   -0.7933   -3.4637 N.am      4 UNK        -0.4209 
     25 C          23.6196    0.4511   -3.0067 C.2       3 UNK         0.4942 
     26 O          22.7980    1.2307   -3.4913 O.2       3 UNK        -0.5208 
     27 CA         24.4698    0.9225   -1.8084 C.3       3 UNK         0.0250 
     28 CB         23.6559    0.8317   -0.5070 C.3       3 UNK        -0.1990 
     29 N          25.7361    0.2044   -1.6300 N.am      3 UNK        -0.4232 
     30 C          26.6995    0.1090   -2.5554 C.2       2 UNK         0.4993 
     31 O          26.6172    0.6080   -3.6764 O.2       2 UNK        -0.5286 
     32 CA         27.9176   -0.7593   -2.2091 C.3       2 UNK         0.0209 
     33 CB         28.9633    0.0613   -1.4369 C.3       2 UNK        -0.1931 
     34 N          27.6107   -1.9817   -1.4569 N.am      2 UNK        -0.4546 
     35 C          26.7010   -2.9074   -1.7908 C.2       1 UNK         0.5154 
     36 O          25.9206   -2.7930   -2.7420 O.2       1 UNK        -0.5181 
     37 C          27.3532   -0.4785   -7.1824 C.2       5 UNK         0.5014 
     38 O          28.1345   -0.7406   -8.1002 O.2       5 UNK        -0.5248 
     39 N          27.6042    0.4918   -6.2875 N.am      6 UNK        -0.4434 
     40 CA         28.8132    1.3351   -6.2962 C.3       6 UNK         0.0363 
     41 CB         28.7795    2.3380   -5.1320 C.3       6 UNK        -0.1936 
     42 C          29.0594    2.0877   -7.6126 C.2       6 UNK         0.5081 
     43 O          30.2085    2.1887   -8.0412 O.2       6 UNK        -0.5248 
     44 N          27.9807    2.5738   -8.2399 N.am      7 UNK        -0.4718 
     45 CA         28.0190    3.2613   -9.5329 C.3       7 UNK         0.0273 
     46 CB         26.6935    4.0095   -9.7468 C.3       7 UNK        -0.1935 
     47 C          28.3000    2.3177  -10.7159 C.2       7 UNK         0.5018 
     48 O          28.8692    2.7621  -11.7127 O.2       7 UNK        -0.5186 
     49 N          27.9014    1.0440  -10.5902 N.am      8 UNK        -0.4240 
     50 CA         28.1255    0.0044  -11.5961 C.3       8 UNK         0.0235 
     51 CB         27.0804   -1.1123  -11.4338 C.3       8 UNK        -0.2000 
     52 C          29.5505   -0.5593  -11.5088 C.2       8 UNK         0.4941 
     53 O          30.2002   -0.7283  -12.5410 O.2       8 UNK        -0.5273 
     54 N          30.0157   -0.8201  -10.2792 N.am      9 UNK        -0.4262 
     55 CA         31.3710   -1.2950   -9.9884 C.3       9 UNK         0.0264 
     56 CB         31.3913   -1.8970   -8.5777 C.3       9 UNK        -0.1955 
     57 C          32.4483   -0.2022  -10.1133 C.2       9 UNK         0.5031 
     58 O          33.6228   -0.5434  -10.2594 O.2       9 UNK        -0.5390 
     59 N          32.0342    1.0718  -10.0401 N.am      10 UNK        -0.4204 
     60 CA         32.8571    2.2849  -10.0157 C.3       10 UNK         0.0237 
     61 CB         33.6598    2.4547  -11.3239 C.3       10 UNK        -0.1985 
     62 C          33.7226    2.3535   -8.7439 C.2       10 UNK         0.4970 
     63 O          34.9360    2.5545   -8.8269 O.2       10 UNK        -0.4914 
     64 N          33.0704    2.1806   -7.5864 N.am      11 UNK        -0.4285 
     65 CA         33.6947    2.2602   -6.2542 C.3       11 UNK         0.1007 
     66 C          34.1096    3.6985   -5.8243 C.2       11 UNK         0.5703 
     67 N          33.6260    4.7543   -6.4690 N.am      11 UNK        -0.7361 
     68 O          34.8915    3.8572   -4.8897 O.2       11 UNK        -0.4986 
     69 C69        32.8171    1.6012   -5.1578 C.3       12 UNK        -0.0947 
     70 S70        32.5138   -0.1720   -5.4409 S.3       12 UNK        -0.2240 
     71 C71        31.4390   -0.5267   -4.0146 C.3       12 UNK         0.0194 
     72 H72        22.9997   -5.6709   -1.6492 H         1 UNK         0.0906 
     73 H73        23.2156   -7.0783   -0.6010 H         1 UNK         0.0906 
     74 H74        22.5057   -5.5928    0.0476 H         1 UNK         0.0906 
     75 H75        24.8909   -4.4730   -1.9818 H         1 UNK         0.3140 
     76 H76        26.6821   -3.8178    0.1451 H         1 UNK         0.1085 
     77 H77        27.8397   -5.3967   -2.2243 H         1 UNK         0.0836 
     78 H78        27.5359   -6.1226   -0.6789 H         1 UNK         0.0836 
     79 H79        31.5503   -4.9715   -1.4898 H         1 UNK         0.0731 
     80 H80        30.3752   -6.0573   -2.1816 H         1 UNK         0.0731 
     81 H81        31.5720   -2.5246   -2.1488 H         1 UNK         0.1312 
     82 H82        29.8745   -1.5985   -5.9766 H         1 UNK         0.1406 
     83 H83        29.1336   -5.4095   -4.1830 H         1 UNK         0.1631 
     84 H84        28.7731   -4.9837   -6.6771 H         1 UNK         0.0717 
     85 H85        28.8378   -3.3444   -7.2703 H         1 UNK         0.0717 
     86 H86        25.2313   -3.1942   -7.7128 H         1 UNK         0.0934 
     87 H87        26.8286   -2.9427   -8.3096 H         1 UNK         0.0934 
     88 H88        25.4788   -0.8401   -7.9633 H         1 UNK         0.0739 
     89 H89        25.6788   -0.9431   -5.0375 H         1 UNK         0.3093 
     90 H90        22.1444   -0.8897   -4.7159 H         1 UNK         0.0818 
     91 H91        22.3170   -3.0079   -3.3892 H         1 UNK         0.0819 
     92 H92        22.2701   -3.3160   -5.1174 H         1 UNK         0.0819 
     93 H93        23.7959   -3.4279   -4.2558 H         1 UNK         0.0819 
     94 H94        24.5356   -1.3734   -3.0312 H         1 UNK         0.3041 
     95 H95        24.7162    1.9713   -1.9865 H         1 UNK         0.0784 
     96 H96        22.7177    1.3819   -0.5932 H         1 UNK         0.0793 
     97 H97        23.4063   -0.2008   -0.2592 H         1 UNK         0.0793 
     98 H98        24.2017    1.2584    0.3348 H         1 UNK         0.0793 
     99 H99        25.8774   -0.2610   -0.7454 H         1 UNK         0.3024 
    100 H100       28.3507   -1.0739   -3.1593 H         1 UNK         0.1171 
    101 H101       29.8854   -0.5026   -1.2965 H         1 UNK         0.0786 
    102 H102       28.5983    0.3546   -0.4519 H         1 UNK         0.0786 
    103 H103       29.2233    0.9757   -1.9708 H         1 UNK         0.0786 
    104 H104       28.2185   -2.1852   -0.6757 H         1 UNK         0.2977 
    105 H105       26.9720    0.6387   -5.5037 H         1 UNK         0.3127 
    106 H106       29.6710    0.6787   -6.1535 H         1 UNK         0.0770 
    107 H107       27.8576    2.9204   -5.1275 H         1 UNK         0.0814 
    108 H108       29.6092    3.0439   -5.1901 H         1 UNK         0.0814 
    109 H109       28.8614    1.8345   -4.1713 H         1 UNK         0.0814 
    110 H110       27.0768    2.4530   -7.8059 H         1 UNK         0.2983 
    111 H111       28.8263    3.9970   -9.5044 H         1 UNK         0.0947 
    112 H112       26.7014    4.5542  -10.6920 H         1 UNK         0.0806 
    113 H113       26.5177    4.7396   -8.9565 H         1 UNK         0.0806 
    114 H114       25.8424    3.3278   -9.7712 H         1 UNK         0.0806 
    115 H115       27.5039    0.7483   -9.7095 H         1 UNK         0.3000 
    116 H116       27.9980    0.4420  -12.5890 H         1 UNK         0.0850 
    117 H117       27.2116   -1.8798  -12.1976 H         1 UNK         0.0810 
    118 H118       26.0669   -0.7242  -11.5365 H         1 UNK         0.0810 
    119 H119       27.1540   -1.6047  -10.4641 H         1 UNK         0.0810 
    120 H120       29.3888   -0.7040   -9.4846 H         1 UNK         0.3040 
    121 H121       31.6220   -2.0841  -10.7004 H         1 UNK         0.0766 
    122 H122       31.0819   -1.1608   -7.8372 H         1 UNK         0.0812 
    123 H123       30.7261   -2.7560   -8.5046 H         1 UNK         0.0812 
    124 H124       32.3912   -2.2368   -8.3040 H         1 UNK         0.0812 
    125 H125       31.0549    1.2234   -9.8325 H         1 UNK         0.3205 
    126 H126       32.1588    3.1211   -9.9539 H         1 UNK         0.0754 
    127 H127       34.1672    3.4199  -11.3450 H         1 UNK         0.0769 
    128 H128       33.0074    2.4120  -12.1961 H         1 UNK         0.0769 
    129 H129       34.4243    1.6859  -11.4389 H         1 UNK         0.0769 
    130 H130       32.0625    2.0527   -7.6126 H         1 UNK         0.2981 
    131 H131       34.6250    1.6912   -6.3055 H         1 UNK         0.0541 
    132 H132       33.9069    5.6787   -6.1824 H         1 UNK         0.3459 
    133 H133       32.9796    4.6360   -7.2319 H         1 UNK         0.3459 
    134 H134       31.8571    2.1140   -5.0864 H         1 UNK         0.0612 
    135 H135       33.2909    1.6957   -4.1787 H         1 UNK         0.0612 
    136 H136       32.0204   -0.3997   -3.1002 H         1 UNK         0.0624 
    137 H137       30.6372    0.2094   -3.9750 H         1 UNK         0.0624 
@<TRIPOS>BOND
     1    1    2 1    
     2    1   72 1    
     3    1   73 1    
     4    1   74 1    
     5    2    3 2    
     6    2    4 am   BACKBONE|DICT|INTERRES
     7    4    5 1    
     8    4   75 1    
     9    5    6 1    
    10    5   35 1    
    11    5   76 1    
    12    6    7 1    
    13    6   77 1    
    14    6   78 1    
    15    7    8 1    
    16    8    9 1    
    17    8   79 1    
    18    8   80 1    
    19    9   10 ar   
    20    9   14 ar   
    21   10   11 ar   
    22   10   81 1    
    23   11   12 ar   
    24   11   71 1    
    25   12   13 ar   
    26   12   82 1    
    27   13   14 ar   
    28   13   15 1    
    29   14   83 1    
    30   15   16 1    
    31   15   84 1    
    32   15   85 1    
    33   16   17 1    
    34   17   18 1    
    35   17   86 1    
    36   17   87 1    
    37   18   19 1    
    38   18   37 1    
    39   18   88 1    
    40   19   20 am   BACKBONE|DICT|INTERRES
    41   19   89 1    
    42   20   21 2    
    43   20   22 1    
    44   22   23 1    
    45   22   24 1    
    46   22   90 1    
    47   23   91 1    
    48   23   92 1    
    49   23   93 1    
    50   24   25 am   BACKBONE|DICT|INTERRES
    51   24   94 1    
    52   25   26 2    
    53   25   27 1    
    54   27   28 1    
    55   27   29 1    
    56   27   95 1    
    57   28   96 1    
    58   28   97 1    
    59   28   98 1    
    60   29   30 am   BACKBONE|DICT|INTERRES
    61   29   99 1    
    62   30   31 2    
    63   30   32 1    
    64   32   33 1    
    65   32   34 1    
    66   32  100 1    
    67   33  101 1    
    68   33  102 1    
    69   33  103 1    
    70   34   35 am   BACKBONE|DICT|INTERRES
    71   34  104 1    
    72   35   36 2    
    73   37   38 2    
    74   37   39 am   BACKBONE|DICT|INTERRES
    75   39   40 1    
    76   39  105 1    
    77   40   41 1    
    78   40   42 1    
    79   40  106 1    
    80   41  107 1    
    81   41  108 1    
    82   41  109 1    
    83   42   43 2    
    84   42   44 am   BACKBONE|DICT|INTERRES
    85   44   45 1    
    86   44  110 1    
    87   45   46 1    
    88   45   47 1    
    89   45  111 1    
    90   46  112 1    
    91   46  113 1    
    92   46  114 1    
    93   47   48 2    
    94   47   49 am   BACKBONE|DICT|INTERRES
    95   49   50 1    
    96   49  115 1    
    97   50   51 1    
    98   50   52 1    
    99   50  116 1    
   100   51  117 1    
   101   51  118 1    
   102   51  119 1    
   103   52   53 2    
   104   52   54 am   BACKBONE|DICT|INTERRES
   105   54   55 1    
   106   54  120 1    
   107   55   56 1    
   108   55   57 1    
   109   55  121 1    
   110   56  122 1    
   111   56  123 1    
   112   56  124 1    
   113   57   58 2    
   114   57   59 am   BACKBONE|DICT|INTERRES
   115   59   60 1    
   116   59  125 1    
   117   60   61 1    
   118   60   62 1    
   119   60  126 1    
   120   61  127 1    
   121   61  128 1    
   122   61  129 1    
   123   62   63 2    
   124   62   64 am   BACKBONE|DICT|INTERRES
   125   64   65 1    
   126   64  130 1    
   127   65   66 1    
   128   65   69 1    
   129   65  131 1    
   130   66   67 am   BACKBONE|DICT|INTERRES
   131   66   68 2    
   132   67  132 1    
   133   67  133 1    
   134   69   70 1    
   135   69  134 1    
   136   69  135 1    
   137   70   71 1    
   138   71  136 1    
   139   71  137 1    
@<TRIPOS>SUBSTRUCTURE
     1 UNK         1 GROUP             0       ****    0 ROOT    
