@<TRIPOS>MOLECULE
3R137
137   139    1
SMALL
USER_CHARGES


@<TRIPOS>ATOM
      1 CA         25.0249   -6.5747    1.0989 C.3       0 UNK        -0.2020 
      2 C          25.5837   -5.1597    1.1046 C.2       0 UNK         0.4855 
      3 O          25.5853   -4.5073    2.1487 O.2       0 UNK        -0.5197 
      4 N          26.0615   -4.6818   -0.0528 N.am      1 UNK        -0.4892 
      5 CA         26.6110   -3.3322   -0.2385 C.3       1 UNK         0.0835 
      6 C6         27.3822   -3.2278   -1.5798 C.3       12 UNK        -0.0855 
      7 S7         28.4508   -1.7480   -1.6881 S.3       12 UNK        -0.2931 
      8 C8         30.1217   -2.4581   -1.5300 C.3       12 UNK         0.0378 
      9 C9         30.7380   -2.7546   -2.8906 C.ar      12 UNK        -0.0802 
     10 C10        31.7640   -1.9473   -3.3916 C.ar      12 UNK        -0.0944 
     11 C11        32.3427   -2.2174   -4.6360 C.ar      12 UNK        -0.0787 
     12 C12        31.8713   -3.2997   -5.3901 C.ar      12 UNK        -0.0862 
     13 C13        30.8357   -4.1051   -4.9064 C.ar      12 UNK        -0.0733 
     14 C14        30.2925   -3.8408   -3.6471 C.ar      12 UNK        -0.0832 
     15 C15        30.3070   -5.2727   -5.7292 C.3       12 UNK         0.0240 
     16 S16        29.2106   -4.7450   -7.0883 S.3       12 UNK        -0.2522 
     17 C17        27.8370   -3.8972   -6.2240 C.3       12 UNK        -0.0967 
     18 CA         27.3658   -2.6150   -6.9559 C.3       5 UNK         0.0660 
     19 N          26.1132   -2.0893   -6.3978 N.am      5 UNK        -0.4015 
     20 C          25.3639   -1.1512   -6.9955 C.2       4 UNK         0.4946 
     21 O          25.6503   -0.6273   -8.0710 O.2       4 UNK        -0.5353 
     22 CA         24.0893   -0.6966   -6.2679 C.3       4 UNK         0.0277 
     23 CB         23.0006   -1.7797   -6.3414 C.3       4 UNK        -0.1981 
     24 N          24.2781   -0.2855   -4.8735 N.am      4 UNK        -0.4209 
     25 C          25.1730    0.5958   -4.4092 C.2       3 UNK         0.4942 
     26 O          26.0735    1.0778   -5.0943 O.2       3 UNK        -0.5208 
     27 CA         25.0500    1.0461   -2.9399 C.3       3 UNK         0.0250 
     28 CB         24.2216    2.3414   -2.8465 C.3       3 UNK        -0.1990 
     29 N          24.5589    0.0426   -1.9821 N.am      3 UNK        -0.4232 
     30 C          23.3793   -0.5930   -1.9191 C.2       2 UNK         0.4993 
     31 O          22.4809   -0.4455   -2.7493 O.2       2 UNK        -0.5286 
     32 CA         23.1976   -1.5956   -0.7583 C.3       2 UNK         0.0209 
     33 CB         21.8908   -2.4038   -0.8712 C.3       2 UNK        -0.1931 
     34 N          24.3232   -2.5310   -0.6567 N.am      2 UNK        -0.4546 
     35 C          25.5228   -2.2435   -0.1318 C.2       1 UNK         0.5154 
     36 O          25.7863   -1.1570    0.3863 O.2       1 UNK        -0.5181 
     37 C          28.4595   -1.5282   -7.0268 C.2       5 UNK         0.5014 
     38 O          29.0923   -1.3785   -8.0737 O.2       5 UNK        -0.5248 
     39 N          28.6171   -0.7576   -5.9397 N.am      6 UNK        -0.4434 
     40 CA         29.5661    0.3534   -5.8408 C.3       6 UNK         0.0363 
     41 CB         29.5599    0.9171   -4.4116 C.3       6 UNK        -0.1936 
     42 C          29.2976    1.4646   -6.8684 C.2       6 UNK         0.5081 
     43 O          30.2468    2.0020   -7.4401 O.2       6 UNK        -0.5248 
     44 N          28.0142    1.7688   -7.0997 N.am      7 UNK        -0.4718 
     45 CA         27.5510    2.7036   -8.1220 C.3       7 UNK         0.0273 
     46 CB         26.0748    3.0515   -7.8707 C.3       7 UNK        -0.1935 
     47 C          27.7556    2.1626   -9.5460 C.2       7 UNK         0.5018 
     48 O          28.2959    2.8829  -10.3851 O.2       7 UNK        -0.5186 
     49 N          27.3352    0.9124   -9.7942 N.am      8 UNK        -0.4240 
     50 CA         27.4047    0.2523  -11.1026 C.3       8 UNK         0.0235 
     51 CB         26.6404   -1.0807  -11.0614 C.3       8 UNK        -0.2000 
     52 C          28.8391    0.0325  -11.6050 C.2       8 UNK         0.4941 
     53 O          29.1147    0.3030  -12.7746 O.2       8 UNK        -0.5273 
     54 N          29.7283   -0.4351  -10.7185 N.am      9 UNK        -0.4262 
     55 CA         31.1505   -0.6304  -11.0145 C.3       9 UNK         0.0264 
     56 CB         31.7103   -1.7149  -10.0809 C.3       9 UNK        -0.1955 
     57 C          31.9753    0.6677  -10.9171 C.2       9 UNK         0.5031 
     58 O          33.1358    0.6646  -11.3295 O.2       9 UNK        -0.5390 
     59 N          31.3787    1.7389  -10.3697 N.am      10 UNK        -0.4204 
     60 CA         31.9477    3.0735  -10.1321 C.3       10 UNK         0.0237 
     61 CB         32.3126    3.7656  -11.4626 C.3       10 UNK        -0.1985 
     62 C          33.1062    3.0961   -9.1124 C.2       10 UNK         0.4970 
     63 O          33.8612    4.0693   -9.0709 O.2       10 UNK        -0.4914 
     64 N          33.2168    2.0404   -8.2998 N.am      11 UNK        -0.4285 
     65 CA         34.1803    1.8956   -7.2019 C.3       11 UNK         0.1007 
     66 C          33.7142    2.5380   -5.8640 C.2       11 UNK         0.5703 
     67 N          32.4598    2.9511   -5.7242 N.am      11 UNK        -0.7361 
     68 O          34.5147    2.6834   -4.9433 O.2       11 UNK        -0.4986 
     69 C69        34.6185    0.4165   -7.0316 C.3       12 UNK        -0.0947 
     70 S70        33.2196   -0.7372   -6.8250 S.3       12 UNK        -0.2240 
     71 C71        33.4949   -1.3534   -5.1377 C.3       12 UNK         0.0194 
     72 H72        23.9768   -6.5649    1.3970 H         1 UNK         0.0906 
     73 H73        25.0930   -7.0379    0.1147 H         1 UNK         0.0906 
     74 H74        25.5739   -7.1975    1.8048 H         1 UNK         0.0906 
     75 H75        26.0437   -5.2717   -0.8733 H         1 UNK         0.3140 
     76 H76        27.3191   -3.1569    0.5752 H         1 UNK         0.1085 
     77 H77        27.9986   -4.1173   -1.7027 H         1 UNK         0.0836 
     78 H78        26.6965   -3.2259   -2.4295 H         1 UNK         0.0836 
     79 H79        30.7434   -1.7472   -0.9835 H         1 UNK         0.0731 
     80 H80        30.0982   -3.3629   -0.9210 H         1 UNK         0.0731 
     81 H81        32.1192   -1.1104   -2.8059 H         1 UNK         0.1312 
     82 H82        32.3056   -3.5117   -6.3576 H         1 UNK         0.1406 
     83 H83        29.5091   -4.4779   -3.2656 H         1 UNK         0.1631 
     84 H84        29.7702   -5.9808   -5.0959 H         1 UNK         0.0717 
     85 H85        31.1479   -5.8239   -6.1525 H         1 UNK         0.0717 
     86 H86        27.0121   -4.6086   -6.1599 H         1 UNK         0.0934 
     87 H87        28.1080   -3.6660   -5.1949 H         1 UNK         0.0934 
     88 H88        27.1445   -2.8995   -7.9874 H         1 UNK         0.0739 
     89 H89        25.8083   -2.4591   -5.5101 H         1 UNK         0.3093 
     90 H90        23.7200    0.1823   -6.8002 H         1 UNK         0.0818 
     91 H91        22.0489   -1.4096   -5.9593 H         1 UNK         0.0819 
     92 H92        22.8322   -2.0971   -7.3716 H         1 UNK         0.0819 
     93 H93        23.2684   -2.6659   -5.7650 H         1 UNK         0.0819 
     94 H94        23.5461   -0.5544   -4.2188 H         1 UNK         0.3041 
     95 H95        26.0643    1.2822   -2.6134 H         1 UNK         0.0784 
     96 H96        24.6357    3.1166   -3.4930 H         1 UNK         0.0793 
     97 H97        23.1862    2.1847   -3.1509 H         1 UNK         0.0793 
     98 H98        24.2167    2.7364   -1.8306 H         1 UNK         0.0793 
     99 H99        25.2160   -0.1900   -1.2424 H         1 UNK         0.3024 
    100 H100       23.1451   -1.0067    0.1606 H         1 UNK         0.1171 
    101 H101       21.8650   -3.0061   -1.7802 H         1 UNK         0.0786 
    102 H102       21.0225   -1.7437   -0.8922 H         1 UNK         0.0786 
    103 H103       21.7637   -3.0734   -0.0203 H         1 UNK         0.0786 
    104 H104       24.1919   -3.4433   -1.0690 H         1 UNK         0.2977 
    105 H105       28.0221   -0.9134   -5.1401 H         1 UNK         0.3127 
    106 H106       30.5581   -0.0500   -6.0423 H         1 UNK         0.0770 
    107 H107       29.8143    0.1499   -3.6817 H         1 UNK         0.0814 
    108 H108       28.5873    1.3279   -4.1401 H         1 UNK         0.0814 
    109 H109       30.2926    1.7170   -4.3050 H         1 UNK         0.0814 
    110 H110       27.3008    1.3226   -6.5271 H         1 UNK         0.2983 
    111 H111       28.1364    3.6211   -8.0288 H         1 UNK         0.0947 
    112 H112       25.7068    3.7585   -8.6153 H         1 UNK         0.0806 
    113 H113       25.9390    3.5101   -6.8910 H         1 UNK         0.0806 
    114 H114       25.4370    2.1677   -7.9134 H         1 UNK         0.0806 
    115 H115       26.8732    0.3917   -9.0503 H         1 UNK         0.3000 
    116 H116       26.9042    0.9041  -11.8218 H         1 UNK         0.0850 
    117 H117       26.6805   -1.5867  -12.0270 H         1 UNK         0.0810 
    118 H118       25.5884   -0.9262  -10.8211 H         1 UNK         0.0810 
    119 H119       27.0569   -1.7605  -10.3170 H         1 UNK         0.0810 
    120 H120       29.4196   -0.6732   -9.7756 H         1 UNK         0.3040 
    121 H121       31.2517   -0.9931  -12.0397 H         1 UNK         0.0766 
    122 H122       32.7784   -1.8672  -10.2415 H         1 UNK         0.0812 
    123 H123       31.2161   -2.6723  -10.2467 H         1 UNK         0.0812 
    124 H124       31.5695   -1.4503   -9.0344 H         1 UNK         0.0812 
    125 H125       30.4247    1.6254  -10.0523 H         1 UNK         0.3205 
    126 H126       31.1447    3.6526   -9.6736 H         1 UNK         0.0754 
    127 H127       32.5817    4.8101  -11.3010 H         1 UNK         0.0769 
    128 H128       31.4725    3.7536  -12.1572 H         1 UNK         0.0769 
    129 H129       33.1602    3.2843  -11.9512 H         1 UNK         0.0769 
    130 H130       32.5179    1.3142   -8.3622 H         1 UNK         0.2981 
    131 H131       35.0793    2.4486   -7.4800 H         1 UNK         0.0541 
    132 H132       31.7786    2.7836   -6.4571 H         1 UNK         0.3459 
    133 H133       32.1792    3.3853   -4.8605 H         1 UNK         0.3459 
    134 H134       35.3217    0.3096   -6.2038 H         1 UNK         0.0612 
    135 H135       35.1665    0.1017   -7.9208 H         1 UNK         0.0612 
    136 H136       34.4154   -1.9381   -5.1154 H         1 UNK         0.0624 
    137 H137       33.6478   -0.4983   -4.4772 H         1 UNK         0.0624 
@<TRIPOS>BOND
     1    1    2 1    
     2    1   72 1    
     3    1   73 1    
     4    1   74 1    
     5    2    3 2    
     6    2    4 am   BACKBONE|DICT|INTERRES
     7    4    5 1    
     8    4   75 1    
     9    5    6 1    
    10    5   35 1    
    11    5   76 1    
    12    6    7 1    
    13    6   77 1    
    14    6   78 1    
    15    7    8 1    
    16    8    9 1    
    17    8   79 1    
    18    8   80 1    
    19    9   10 ar   
    20    9   14 ar   
    21   10   11 ar   
    22   10   81 1    
    23   11   12 ar   
    24   11   71 1    
    25   12   13 ar   
    26   12   82 1    
    27   13   14 ar   
    28   13   15 1    
    29   14   83 1    
    30   15   16 1    
    31   15   84 1    
    32   15   85 1    
    33   16   17 1    
    34   17   18 1    
    35   17   86 1    
    36   17   87 1    
    37   18   19 1    
    38   18   37 1    
    39   18   88 1    
    40   19   20 am   BACKBONE|DICT|INTERRES
    41   19   89 1    
    42   20   21 2    
    43   20   22 1    
    44   22   23 1    
    45   22   24 1    
    46   22   90 1    
    47   23   91 1    
    48   23   92 1    
    49   23   93 1    
    50   24   25 am   BACKBONE|DICT|INTERRES
    51   24   94 1    
    52   25   26 2    
    53   25   27 1    
    54   27   28 1    
    55   27   29 1    
    56   27   95 1    
    57   28   96 1    
    58   28   97 1    
    59   28   98 1    
    60   29   30 am   BACKBONE|DICT|INTERRES
    61   29   99 1    
    62   30   31 2    
    63   30   32 1    
    64   32   33 1    
    65   32   34 1    
    66   32  100 1    
    67   33  101 1    
    68   33  102 1    
    69   33  103 1    
    70   34   35 am   BACKBONE|DICT|INTERRES
    71   34  104 1    
    72   35   36 2    
    73   37   38 2    
    74   37   39 am   BACKBONE|DICT|INTERRES
    75   39   40 1    
    76   39  105 1    
    77   40   41 1    
    78   40   42 1    
    79   40  106 1    
    80   41  107 1    
    81   41  108 1    
    82   41  109 1    
    83   42   43 2    
    84   42   44 am   BACKBONE|DICT|INTERRES
    85   44   45 1    
    86   44  110 1    
    87   45   46 1    
    88   45   47 1    
    89   45  111 1    
    90   46  112 1    
    91   46  113 1    
    92   46  114 1    
    93   47   48 2    
    94   47   49 am   BACKBONE|DICT|INTERRES
    95   49   50 1    
    96   49  115 1    
    97   50   51 1    
    98   50   52 1    
    99   50  116 1    
   100   51  117 1    
   101   51  118 1    
   102   51  119 1    
   103   52   53 2    
   104   52   54 am   BACKBONE|DICT|INTERRES
   105   54   55 1    
   106   54  120 1    
   107   55   56 1    
   108   55   57 1    
   109   55  121 1    
   110   56  122 1    
   111   56  123 1    
   112   56  124 1    
   113   57   58 2    
   114   57   59 am   BACKBONE|DICT|INTERRES
   115   59   60 1    
   116   59  125 1    
   117   60   61 1    
   118   60   62 1    
   119   60  126 1    
   120   61  127 1    
   121   61  128 1    
   122   61  129 1    
   123   62   63 2    
   124   62   64 am   BACKBONE|DICT|INTERRES
   125   64   65 1    
   126   64  130 1    
   127   65   66 1    
   128   65   69 1    
   129   65  131 1    
   130   66   67 am   BACKBONE|DICT|INTERRES
   131   66   68 2    
   132   67  132 1    
   133   67  133 1    
   134   69   70 1    
   135   69  134 1    
   136   69  135 1    
   137   70   71 1    
   138   71  136 1    
   139   71  137 1    
@<TRIPOS>SUBSTRUCTURE
     1 UNK         1 GROUP             0       ****    0 ROOT    
