@<TRIPOS>MOLECULE
3R137
137   139    1
SMALL
USER_CHARGES


@<TRIPOS>ATOM
      1 CA         23.8029   -5.2617   -2.7165 C.3       0 UNK        -0.2020 
      2 C          24.6116   -4.3107   -1.8481 C.2       0 UNK         0.4855 
      3 O          24.0419   -3.4191   -1.2179 O.2       0 UNK        -0.5197 
      4 N          25.9384   -4.4852   -1.8217 N.am      1 UNK        -0.4892 
      5 CA         26.9116   -3.6511   -1.1077 C.3       1 UNK         0.0835 
      6 C6         28.3503   -4.2368   -1.1680 C.3       12 UNK        -0.0855 
      7 S7         28.8105   -5.0018   -2.7672 S.3       12 UNK        -0.2931 
      8 C8         30.5679   -4.5605   -2.9163 C.3       12 UNK         0.0378 
      9 C9         30.7731   -3.3204   -3.7729 C.ar      12 UNK        -0.0802 
     10 C10        30.8387   -3.4435   -5.1636 C.ar      12 UNK        -0.0944 
     11 C11        31.1075   -2.3300   -5.9652 C.ar      12 UNK        -0.0787 
     12 C12        31.2860   -1.0823   -5.3630 C.ar      12 UNK        -0.0862 
     13 C13        31.1924   -0.9362   -3.9753 C.ar      12 UNK        -0.0733 
     14 C14        30.9390   -2.0629   -3.1844 C.ar      12 UNK        -0.0832 
     15 C15        31.3877    0.4291   -3.3215 C.3       12 UNK         0.0240 
     16 S16        30.3894    1.7544   -4.0845 S.3       12 UNK        -0.2522 
     17 C17        28.6985    1.0940   -3.9078 C.3       12 UNK        -0.0967 
     18 CA         28.0753    0.7263   -5.2809 C.3       5 UNK         0.0660 
     19 N          27.2383   -0.4751   -5.1928 N.am      5 UNK        -0.4015 
     20 C          26.6364   -1.0853   -6.2247 C.2       4 UNK         0.4946 
     21 O          26.7287   -0.7197   -7.3946 O.2       4 UNK        -0.5353 
     22 CA         25.7024   -2.2551   -5.8836 C.3       4 UNK         0.0277 
     23 CB         26.4947   -3.5421   -5.6013 C.3       4 UNK        -0.1981 
     24 N          24.8457   -1.9170   -4.7455 N.am      4 UNK        -0.4209 
     25 C          23.8140   -1.0613   -4.8187 C.2       3 UNK         0.4942 
     26 O          23.4100   -0.5681   -5.8714 O.2       3 UNK        -0.5208 
     27 CA         23.1420   -0.6508   -3.4970 C.3       3 UNK         0.0250 
     28 CB         21.9453   -1.5622   -3.1837 C.3       3 UNK        -0.1990 
     29 N          24.0764   -0.6393   -2.3672 N.am      3 UNK        -0.4232 
     30 C          25.0449    0.2780   -2.2162 C.2       2 UNK         0.4993 
     31 O          25.2160    1.2171   -2.9914 O.2       2 UNK        -0.5286 
     32 CA         26.0250    0.0976   -1.0435 C.3       2 UNK         0.0209 
     33 CB         25.5020    0.8152    0.2105 C.3       2 UNK        -0.1931 
     34 N          26.3043   -1.3054   -0.7257 N.am      2 UNK        -0.4546 
     35 C          26.8421   -2.1858   -1.5812 C.2       1 UNK         0.5154 
     36 O          27.2028   -1.8864   -2.7202 O.2       1 UNK        -0.5181 
     37 C          27.3368    1.9305   -5.9077 C.2       5 UNK         0.5014 
     38 O          27.9290    2.6684   -6.6942 O.2       5 UNK        -0.5248 
     39 N          26.0502    2.0995   -5.5699 N.am      6 UNK        -0.4434 
     40 CA         25.1620    3.1037   -6.1585 C.3       6 UNK         0.0363 
     41 CB         23.8599    3.1730   -5.3451 C.3       6 UNK        -0.1936 
     42 C          24.8518    2.8527   -7.6459 C.2       6 UNK         0.5081 
     43 O          24.6532    3.8184   -8.3840 O.2       6 UNK        -0.5248 
     44 N          24.8053    1.5793   -8.0625 N.am      7 UNK        -0.4718 
     45 CA         24.5815    1.1771   -9.4524 C.3       7 UNK         0.0273 
     46 CB         24.0358   -0.2597   -9.5011 C.3       7 UNK        -0.1935 
     47 C          25.8547    1.3187  -10.3021 C.2       7 UNK         0.5018 
     48 O          25.7802    1.8519  -11.4103 O.2       7 UNK        -0.5186 
     49 N          26.9946    0.8598   -9.7717 N.am      8 UNK        -0.4240 
     50 CA         28.3104    0.9645  -10.3956 C.3       8 UNK         0.0235 
     51 CB         28.5377   -0.2147  -11.3601 C.3       8 UNK        -0.2000 
     52 C          29.3648    0.9995   -9.2861 C.2       8 UNK         0.4941 
     53 O          29.5425    0.0000   -8.5916 O.2       8 UNK        -0.5273 
     54 N          30.0315    2.1465   -9.1236 N.am      9 UNK        -0.4262 
     55 CA         31.0534    2.3609   -8.0983 C.3       9 UNK         0.0264 
     56 CB         31.1831    3.8725   -7.8425 C.3       9 UNK        -0.1955 
     57 C          32.4131    1.7641   -8.4997 C.2       9 UNK         0.5031 
     58 O          32.6637    1.5432   -9.6873 O.2       9 UNK        -0.5390 
     59 N          33.2817    1.5884   -7.4926 N.am      10 UNK        -0.4204 
     60 CA         34.6972    1.2104   -7.5915 C.3       10 UNK         0.0237 
     61 CB         35.5126    2.3511   -8.2398 C.3       10 UNK        -0.1985 
     62 C          34.9353   -0.1534   -8.2696 C.2       10 UNK         0.4970 
     63 O          35.6080   -0.2246   -9.3007 O.2       10 UNK        -0.4914 
     64 N          34.4018   -1.2172   -7.6560 N.am      11 UNK        -0.4285 
     65 CA         34.7341   -2.6134   -7.9839 C.3       11 UNK         0.1007 
     66 C          36.2246   -2.9398   -7.6799 C.2       11 UNK         0.5703 
     67 N          36.8475   -3.7964   -8.4778 N.am      11 UNK        -0.7361 
     68 O          36.8042   -2.4569   -6.7080 O.2       11 UNK        -0.4986 
     69 C69        33.8006   -3.6022   -7.2362 C.3       12 UNK        -0.0947 
     70 S70        32.2005   -3.8491   -8.0746 S.3       12 UNK        -0.2240 
     71 C71        31.1921   -2.4507   -7.4826 C.3       12 UNK         0.0194 
     72 H72        23.4195   -4.7387   -3.5920 H         1 UNK         0.0906 
     73 H73        24.4010   -6.1056   -3.0599 H         1 UNK         0.0906 
     74 H74        22.9559   -5.6551   -2.1550 H         1 UNK         0.0906 
     75 H75        26.3592   -5.2098   -2.3879 H         1 UNK         0.3140 
     76 H76        26.6137   -3.6629   -0.0568 H         1 UNK         0.1085 
     77 H77        29.0872   -3.4814   -0.8883 H         1 UNK         0.0836 
     78 H78        28.4432   -5.0185   -0.4124 H         1 UNK         0.0836 
     79 H79        31.0959   -5.4008   -3.3698 H         1 UNK         0.0731 
     80 H80        31.0137   -4.4302   -1.9291 H         1 UNK         0.0731 
     81 H81        30.6993   -4.4132   -5.6215 H         1 UNK         0.1312 
     82 H82        31.4780   -0.2161   -5.9789 H         1 UNK         0.1406 
     83 H83        30.8819   -1.9653   -2.1090 H         1 UNK         0.1631 
     84 H84        31.1470    0.3862   -2.2581 H         1 UNK         0.0717 
     85 H85        32.4416    0.7018   -3.3872 H         1 UNK         0.0717 
     86 H86        28.7448    0.2173   -3.2609 H         1 UNK         0.0934 
     87 H87        28.0869    1.8155   -3.3619 H         1 UNK         0.0934 
     88 H88        28.8772    0.4575   -5.9712 H         1 UNK         0.0739 
     89 H89        27.1493   -0.8979   -4.2710 H         1 UNK         0.3093 
     90 H90        25.0641   -2.4396   -6.7507 H         1 UNK         0.0818 
     91 H91        27.0727   -3.8376   -6.4779 H         1 UNK         0.0819 
     92 H92        27.2022   -3.4193   -4.7820 H         1 UNK         0.0819 
     93 H93        25.8335   -4.3721   -5.3531 H         1 UNK         0.0819 
     94 H94        25.1572   -2.2259   -3.8355 H         1 UNK         0.3041 
     95 H95        22.7609    0.3647   -3.6269 H         1 UNK         0.0784 
     96 H96        21.2100   -1.5268   -3.9888 H         1 UNK         0.0793 
     97 H97        22.2443   -2.6029   -3.0646 H         1 UNK         0.0793 
     98 H98        21.4391   -1.2523   -2.2694 H         1 UNK         0.0793 
     99 H99        24.0229   -1.4180   -1.7170 H         1 UNK         0.3024 
    100 H100       26.9682    0.5638   -1.3359 H         1 UNK         0.1171 
    101 H101       26.2286    0.7771    1.0224 H         1 UNK         0.0786 
    102 H102       25.3060    1.8684    0.0033 H         1 UNK         0.0786 
    103 H103       24.5710    0.3751    0.5702 H         1 UNK         0.0786 
    104 H104       25.9907   -1.6335    0.1769 H         1 UNK         0.2977 
    105 H105       25.6637    1.5319   -4.8195 H         1 UNK         0.3127 
    106 H106       25.6608    4.0724   -6.0858 H         1 UNK         0.0770 
    107 H107       23.3235    2.2237   -5.3635 H         1 UNK         0.0814 
    108 H108       23.1895    3.9349   -5.7450 H         1 UNK         0.0814 
    109 H109       24.0551    3.4278   -4.3032 H         1 UNK         0.0814 
    110 H110       25.0028    0.8395   -7.4004 H         1 UNK         0.2983 
    111 H111       23.8217    1.8332   -9.8833 H         1 UNK         0.0947 
    112 H112       23.8076   -0.5533  -10.5265 H         1 UNK         0.0806 
    113 H113       23.1159   -0.3533   -8.9233 H         1 UNK         0.0806 
    114 H114       24.7498   -0.9833   -9.1082 H         1 UNK         0.0806 
    115 H115       26.9748    0.4059   -8.8572 H         1 UNK         0.3000 
    116 H116       28.3686    1.8955  -10.9638 H         1 UNK         0.0850 
    117 H117       29.5345   -0.1703  -11.8005 H         1 UNK         0.0810 
    118 H118       27.8185   -0.2033  -12.1791 H         1 UNK         0.0810 
    119 H119       28.4480   -1.1740  -10.8485 H         1 UNK         0.0810 
    120 H120       29.8530    2.9160   -9.7515 H         1 UNK         0.3040 
    121 H121       30.7215    1.8826   -7.1743 H         1 UNK         0.0766 
    122 H122       31.5203    4.4062   -8.7320 H         1 UNK         0.0812 
    123 H123       31.8995    4.0796   -7.0465 H         1 UNK         0.0812 
    124 H124       30.2297    4.3017   -7.5325 H         1 UNK         0.0812 
    125 H125       32.9650    1.8140   -6.5596 H         1 UNK         0.3205 
    126 H126       35.0576    1.1042   -6.5669 H         1 UNK         0.0754 
    127 H127       36.5786    2.1196   -8.2375 H         1 UNK         0.0769 
    128 H128       35.3848    3.2880   -7.6976 H         1 UNK         0.0769 
    129 H129       35.2199    2.5223   -9.2765 H         1 UNK         0.0769 
    130 H130       33.8787   -1.0788   -6.8056 H         1 UNK         0.2981 
    131 H131       34.5885   -2.7396   -9.0588 H         1 UNK         0.0541 
    132 H132       36.3773   -4.2089   -9.2687 H         1 UNK         0.3459 
    133 H133       37.8092   -4.0322   -8.2883 H         1 UNK         0.3459 
    134 H134       33.6514   -3.3007   -6.1985 H         1 UNK         0.0612 
    135 H135       34.2514   -4.5955   -7.1850 H         1 UNK         0.0612 
    136 H136       31.5954   -1.5369   -7.9204 H         1 UNK         0.0624 
    137 H137       30.1813   -2.5604   -7.8772 H         1 UNK         0.0624 
@<TRIPOS>BOND
     1    1    2 1    
     2    1   72 1    
     3    1   73 1    
     4    1   74 1    
     5    2    3 2    
     6    2    4 am   BACKBONE|DICT|INTERRES
     7    4    5 1    
     8    4   75 1    
     9    5    6 1    
    10    5   35 1    
    11    5   76 1    
    12    6    7 1    
    13    6   77 1    
    14    6   78 1    
    15    7    8 1    
    16    8    9 1    
    17    8   79 1    
    18    8   80 1    
    19    9   10 ar   
    20    9   14 ar   
    21   10   11 ar   
    22   10   81 1    
    23   11   12 ar   
    24   11   71 1    
    25   12   13 ar   
    26   12   82 1    
    27   13   14 ar   
    28   13   15 1    
    29   14   83 1    
    30   15   16 1    
    31   15   84 1    
    32   15   85 1    
    33   16   17 1    
    34   17   18 1    
    35   17   86 1    
    36   17   87 1    
    37   18   19 1    
    38   18   37 1    
    39   18   88 1    
    40   19   20 am   BACKBONE|DICT|INTERRES
    41   19   89 1    
    42   20   21 2    
    43   20   22 1    
    44   22   23 1    
    45   22   24 1    
    46   22   90 1    
    47   23   91 1    
    48   23   92 1    
    49   23   93 1    
    50   24   25 am   BACKBONE|DICT|INTERRES
    51   24   94 1    
    52   25   26 2    
    53   25   27 1    
    54   27   28 1    
    55   27   29 1    
    56   27   95 1    
    57   28   96 1    
    58   28   97 1    
    59   28   98 1    
    60   29   30 am   BACKBONE|DICT|INTERRES
    61   29   99 1    
    62   30   31 2    
    63   30   32 1    
    64   32   33 1    
    65   32   34 1    
    66   32  100 1    
    67   33  101 1    
    68   33  102 1    
    69   33  103 1    
    70   34   35 am   BACKBONE|DICT|INTERRES
    71   34  104 1    
    72   35   36 2    
    73   37   38 2    
    74   37   39 am   BACKBONE|DICT|INTERRES
    75   39   40 1    
    76   39  105 1    
    77   40   41 1    
    78   40   42 1    
    79   40  106 1    
    80   41  107 1    
    81   41  108 1    
    82   41  109 1    
    83   42   43 2    
    84   42   44 am   BACKBONE|DICT|INTERRES
    85   44   45 1    
    86   44  110 1    
    87   45   46 1    
    88   45   47 1    
    89   45  111 1    
    90   46  112 1    
    91   46  113 1    
    92   46  114 1    
    93   47   48 2    
    94   47   49 am   BACKBONE|DICT|INTERRES
    95   49   50 1    
    96   49  115 1    
    97   50   51 1    
    98   50   52 1    
    99   50  116 1    
   100   51  117 1    
   101   51  118 1    
   102   51  119 1    
   103   52   53 2    
   104   52   54 am   BACKBONE|DICT|INTERRES
   105   54   55 1    
   106   54  120 1    
   107   55   56 1    
   108   55   57 1    
   109   55  121 1    
   110   56  122 1    
   111   56  123 1    
   112   56  124 1    
   113   57   58 2    
   114   57   59 am   BACKBONE|DICT|INTERRES
   115   59   60 1    
   116   59  125 1    
   117   60   61 1    
   118   60   62 1    
   119   60  126 1    
   120   61  127 1    
   121   61  128 1    
   122   61  129 1    
   123   62   63 2    
   124   62   64 am   BACKBONE|DICT|INTERRES
   125   64   65 1    
   126   64  130 1    
   127   65   66 1    
   128   65   69 1    
   129   65  131 1    
   130   66   67 am   BACKBONE|DICT|INTERRES
   131   66   68 2    
   132   67  132 1    
   133   67  133 1    
   134   69   70 1    
   135   69  134 1    
   136   69  135 1    
   137   70   71 1    
   138   71  136 1    
   139   71  137 1    
@<TRIPOS>SUBSTRUCTURE
     1 UNK         1 GROUP             0       ****    0 ROOT    
