@<TRIPOS>MOLECULE
3R137
137   139    1
SMALL
USER_CHARGES


@<TRIPOS>ATOM
      1 CA         27.6223   -6.5345    1.4908 C.3       0 UNK        -0.2020 
      2 C          26.7701   -5.2746    1.4766 C.2       0 UNK         0.4855 
      3 O          25.5695   -5.3440    1.7402 O.2       0 UNK        -0.5197 
      4 N          27.3822   -4.1227    1.1735 N.am      1 UNK        -0.4892 
      5 CA         26.7243   -2.8128    1.0747 C.3       1 UNK         0.0835 
      6 C6         27.7450   -1.6433    1.1006 C.3       12 UNK        -0.0855 
      7 S7         29.1746   -1.8686   -0.0173 S.3       12 UNK        -0.2931 
      8 C8         28.7220   -0.7912   -1.4097 C.3       12 UNK         0.0378 
      9 C9         29.6824   -0.9804   -2.5733 C.ar      12 UNK        -0.0802 
     10 C10        30.6466   -0.0127   -2.8661 C.ar      12 UNK        -0.0944 
     11 C11        31.5359   -0.1832   -3.9332 C.ar      12 UNK        -0.0787 
     12 C12        31.4453   -1.3482   -4.7096 C.ar      12 UNK        -0.0862 
     13 C13        30.4992   -2.3341   -4.4134 C.ar      12 UNK        -0.0733 
     14 C14        29.6129   -2.1374   -3.3515 C.ar      12 UNK        -0.0832 
     15 C15        30.4753   -3.6391   -5.1998 C.3       12 UNK         0.0240 
     16 S16        29.6999   -3.4726   -6.8373 S.3       12 UNK        -0.2522 
     17 C17        27.9646   -3.1288   -6.4003 C.3       12 UNK        -0.0967 
     18 CA         27.3472   -1.9495   -7.1877 C.3       5 UNK         0.0660 
     19 N          25.9114   -1.8413   -6.9239 N.am      5 UNK        -0.4015 
     20 C          25.0436   -1.1485   -7.6739 C.2       4 UNK         0.4946 
     21 O          25.3525   -0.5512   -8.7040 O.2       4 UNK        -0.5353 
     22 CA         23.5914   -1.0808   -7.1696 C.3       4 UNK         0.0277 
     23 CB         22.7972   -2.3085   -7.6430 C.3       4 UNK        -0.1981 
     24 N          23.5003   -0.9664   -5.7112 N.am      4 UNK        -0.4209 
     25 C          23.9333    0.0924   -5.0115 C.2       3 UNK         0.4942 
     26 O          24.3985    1.1054   -5.5290 O.2       3 UNK        -0.5208 
     27 CA         23.8860   -0.0074   -3.4780 C.3       3 UNK         0.0250 
     28 CB         22.5441    0.5190   -2.9458 C.3       3 UNK        -0.1990 
     29 N          24.1266   -1.3561   -2.9544 N.am      3 UNK        -0.4232 
     30 C          25.2335   -2.0813   -3.1647 C.2       2 UNK         0.4993 
     31 O          26.1695   -1.7106   -3.8773 O.2       2 UNK        -0.5286 
     32 CA         25.3004   -3.4517   -2.4671 C.3       2 UNK         0.0209 
     33 CB         25.8943   -4.5275   -3.3939 C.3       2 UNK        -0.1931 
     34 N          26.0828   -3.4027   -1.2301 N.am      2 UNK        -0.4546 
     35 C          25.7603   -2.7099   -0.1272 C.2       1 UNK         0.5154 
     36 O          24.7380   -2.0307   -0.0210 O.2       1 UNK        -0.5181 
     37 C          28.0550   -0.6044   -6.9248 C.2       5 UNK         0.5014 
     38 O          28.8857   -0.1912   -7.7373 O.2       5 UNK        -0.5248 
     39 N          27.6682    0.0801   -5.8369 N.am      6 UNK        -0.4434 
     40 CA         28.1220    1.4342   -5.5100 C.3       6 UNK         0.0363 
     41 CB         27.5987    1.8413   -4.1238 C.3       6 UNK        -0.1936 
     42 C          27.7066    2.4710   -6.5700 C.2       6 UNK         0.5081 
     43 O          28.5285    3.3034   -6.9509 O.2       6 UNK        -0.5248 
     44 N          26.4538    2.3884   -7.0434 N.am      7 UNK        -0.4718 
     45 CA         25.8996    3.2345   -8.1046 C.3       7 UNK         0.0273 
     46 CB         24.3786    3.0326   -8.1909 C.3       7 UNK        -0.1935 
     47 C          26.5574    2.9921   -9.4727 C.2       7 UNK         0.5018 
     48 O          26.8343    3.9583  -10.1847 O.2       7 UNK        -0.5186 
     49 N          26.8164    1.7189   -9.8082 N.am      8 UNK        -0.4240 
     50 CA         27.5689    1.3140  -11.0007 C.3       8 UNK         0.0235 
     51 CB         27.4274   -0.2029  -11.2062 C.3       8 UNK        -0.2000 
     52 C          29.0567    1.7042  -10.9361 C.2       8 UNK         0.4941 
     53 O          29.6700    1.9017  -11.9856 O.2       8 UNK        -0.5273 
     54 N          29.5965    1.8007   -9.7120 N.am      9 UNK        -0.4262 
     55 CA         30.9776    2.1309   -9.3559 C.3       9 UNK         0.0264 
     56 CB         31.3287    3.5764   -9.7662 C.3       9 UNK        -0.1955 
     57 C          31.9812    1.0883   -9.8769 C.2       9 UNK         0.5031 
     58 O          33.0635    1.4507  -10.3431 O.2       9 UNK        -0.5390 
     59 N          31.6204   -0.1998   -9.7625 N.am      10 UNK        -0.4204 
     60 CA         32.4532   -1.3392  -10.1772 C.3       10 UNK         0.0237 
     61 CB         31.6257   -2.6304  -10.1059 C.3       10 UNK        -0.1985 
     62 C          33.7591   -1.4786   -9.3686 C.2       10 UNK         0.4970 
     63 O          34.7139   -2.0858   -9.8541 O.2       10 UNK        -0.4914 
     64 N          33.7808   -0.8814   -8.1723 N.am      11 UNK        -0.4285 
     65 CA         34.9660   -0.6134   -7.3484 C.3       11 UNK         0.1007 
     66 C          35.9907    0.3847   -7.9691 C.2       11 UNK         0.5703 
     67 N          35.6563    1.1461   -9.0053 N.am      11 UNK        -0.7361 
     68 O          37.1252    0.4587   -7.5026 O.2       11 UNK        -0.4986 
     69 C69        34.5589   -0.1883   -5.9088 C.3       12 UNK        -0.0947 
     70 S70        33.2175    1.0604   -5.8693 S.3       12 UNK        -0.2240 
     71 C71        32.6030    0.8912   -4.1607 C.3       12 UNK         0.0194 
     72 H72        28.6637   -6.3260    1.2460 H         1 UNK         0.0906 
     73 H73        27.5924   -6.9966    2.4772 H         1 UNK         0.0906 
     74 H74        27.2411   -7.2533    0.7659 H         1 UNK         0.0906 
     75 H75        28.3731   -4.1157    0.9705 H         1 UNK         0.3140 
     76 H76        26.0960   -2.7066    1.9624 H         1 UNK         0.1085 
     77 H77        27.2574   -0.6864    0.9014 H         1 UNK         0.0836 
     78 H78        28.1461   -1.5517    2.1112 H         1 UNK         0.0836 
     79 H79        27.7077   -1.0143   -1.7395 H         1 UNK         0.0731 
     80 H80        28.7174    0.2472   -1.0749 H         1 UNK         0.0731 
     81 H81        30.7117    0.8751   -2.2519 H         1 UNK         0.1312 
     82 H82        32.1154   -1.5144   -5.5383 H         1 UNK         0.1406 
     83 H83        28.8780   -2.8924   -3.1104 H         1 UNK         0.1631 
     84 H84        29.9591   -4.4194   -4.6382 H         1 UNK         0.0717 
     85 H85        31.4982   -3.9933   -5.3351 H         1 UNK         0.0717 
     86 H86        27.3964   -4.0397   -6.5950 H         1 UNK         0.0934 
     87 H87        27.8806   -2.9525   -5.3302 H         1 UNK         0.0934 
     88 H88        27.4634   -2.1687   -8.2515 H         1 UNK         0.0739 
     89 H89        25.5905   -2.2287   -6.0479 H         1 UNK         0.3093 
     90 H90        23.1331   -0.1902   -7.6048 H         1 UNK         0.0818 
     91 H91        21.7456   -2.2317   -7.3656 H         1 UNK         0.0819 
     92 H92        22.8371   -2.4019   -8.7293 H         1 UNK         0.0819 
     93 H93        23.1896   -3.2349   -7.2219 H         1 UNK         0.0819 
     94 H94        23.1152   -1.7519   -5.2071 H         1 UNK         0.3041 
     95 H95        24.6798    0.6332   -3.0887 H         1 UNK         0.0784 
     96 H96        22.3535    1.5324   -3.3026 H         1 UNK         0.0793 
     97 H97        21.7081   -0.1030   -3.2682 H         1 UNK         0.0793 
     98 H98        22.5362    0.5552   -1.8561 H         1 UNK         0.0793 
     99 H99        23.4352   -1.7156   -2.3108 H         1 UNK         0.3024 
    100 H100       24.2835   -3.7582   -2.2117 H         1 UNK         0.1171 
    101 H101       25.3630   -4.5636   -4.3459 H         1 UNK         0.0786 
    102 H102       25.8189   -5.5185   -2.9459 H         1 UNK         0.0786 
    103 H103       26.9456   -4.3420   -3.6127 H         1 UNK         0.0786 
    104 H104       26.9452   -3.9266   -1.2152 H         1 UNK         0.2977 
    105 H105       27.0172   -0.3595   -5.1941 H         1 UNK         0.3127 
    106 H106       29.2135    1.4103   -5.4703 H         1 UNK         0.0770 
    107 H107       26.5148    1.9528   -4.1148 H         1 UNK         0.0814 
    108 H108       28.0257    2.7960   -3.8149 H         1 UNK         0.0814 
    109 H109       27.8630    1.1066   -3.3662 H         1 UNK         0.0814 
    110 H110       25.8132    1.7263   -6.6108 H         1 UNK         0.2983 
    111 H111       26.0887    4.2746   -7.8301 H         1 UNK         0.0947 
    112 H112       23.9425    3.6689   -8.9621 H         1 UNK         0.0806 
    113 H113       23.8916    3.2849   -7.2487 H         1 UNK         0.0806 
    114 H114       24.1218    2.0011   -8.4337 H         1 UNK         0.0806 
    115 H115       26.4757    0.9728   -9.2070 H         1 UNK         0.3000 
    116 H116       27.1322    1.8204  -11.8641 H         1 UNK         0.0850 
    117 H117       27.9631   -0.5292  -12.0987 H         1 UNK         0.0810 
    118 H118       26.3832   -0.4901  -11.3316 H         1 UNK         0.0810 
    119 H119       27.8287   -0.7628  -10.3607 H         1 UNK         0.0810 
    120 H120       29.0114    1.5313   -8.9280 H         1 UNK         0.3040 
    121 H121       31.0256    2.0794   -8.2668 H         1 UNK         0.0766 
    122 H122       30.6040    4.2860   -9.3667 H         1 UNK         0.0812 
    123 H123       31.3561    3.6961  -10.8496 H         1 UNK         0.0812 
    124 H124       32.3087    3.8630   -9.3826 H         1 UNK         0.0812 
    125 H125       30.7225   -0.4090   -9.3426 H         1 UNK         0.3205 
    126 H126       32.7364   -1.1746  -11.2190 H         1 UNK         0.0754 
    127 H127       32.1944   -3.4797  -10.4869 H         1 UNK         0.0769 
    128 H128       30.7149   -2.5565  -10.7007 H         1 UNK         0.0769 
    129 H129       31.3424   -2.8641   -9.0813 H         1 UNK         0.0769 
    130 H130       32.9443   -0.4062   -7.8688 H         1 UNK         0.2981 
    131 H131       35.5049   -1.5588   -7.2643 H         1 UNK         0.0541 
    132 H132       36.3428    1.7764   -9.3870 H         1 UNK         0.3459 
    133 H133       34.7245    1.1204   -9.4083 H         1 UNK         0.3459 
    134 H134       35.4131    0.2007   -5.3513 H         1 UNK         0.0612 
    135 H135       34.2438   -1.0703   -5.3526 H         1 UNK         0.0612 
    136 H136       33.4444    0.7031   -3.4926 H         1 UNK         0.0624 
    137 H137       32.1971    1.8624   -3.8735 H         1 UNK         0.0624 
@<TRIPOS>BOND
     1    1    2 1    
     2    1   72 1    
     3    1   73 1    
     4    1   74 1    
     5    2    3 2    
     6    2    4 am   BACKBONE|DICT|INTERRES
     7    4    5 1    
     8    4   75 1    
     9    5    6 1    
    10    5   35 1    
    11    5   76 1    
    12    6    7 1    
    13    6   77 1    
    14    6   78 1    
    15    7    8 1    
    16    8    9 1    
    17    8   79 1    
    18    8   80 1    
    19    9   10 ar   
    20    9   14 ar   
    21   10   11 ar   
    22   10   81 1    
    23   11   12 ar   
    24   11   71 1    
    25   12   13 ar   
    26   12   82 1    
    27   13   14 ar   
    28   13   15 1    
    29   14   83 1    
    30   15   16 1    
    31   15   84 1    
    32   15   85 1    
    33   16   17 1    
    34   17   18 1    
    35   17   86 1    
    36   17   87 1    
    37   18   19 1    
    38   18   37 1    
    39   18   88 1    
    40   19   20 am   BACKBONE|DICT|INTERRES
    41   19   89 1    
    42   20   21 2    
    43   20   22 1    
    44   22   23 1    
    45   22   24 1    
    46   22   90 1    
    47   23   91 1    
    48   23   92 1    
    49   23   93 1    
    50   24   25 am   BACKBONE|DICT|INTERRES
    51   24   94 1    
    52   25   26 2    
    53   25   27 1    
    54   27   28 1    
    55   27   29 1    
    56   27   95 1    
    57   28   96 1    
    58   28   97 1    
    59   28   98 1    
    60   29   30 am   BACKBONE|DICT|INTERRES
    61   29   99 1    
    62   30   31 2    
    63   30   32 1    
    64   32   33 1    
    65   32   34 1    
    66   32  100 1    
    67   33  101 1    
    68   33  102 1    
    69   33  103 1    
    70   34   35 am   BACKBONE|DICT|INTERRES
    71   34  104 1    
    72   35   36 2    
    73   37   38 2    
    74   37   39 am   BACKBONE|DICT|INTERRES
    75   39   40 1    
    76   39  105 1    
    77   40   41 1    
    78   40   42 1    
    79   40  106 1    
    80   41  107 1    
    81   41  108 1    
    82   41  109 1    
    83   42   43 2    
    84   42   44 am   BACKBONE|DICT|INTERRES
    85   44   45 1    
    86   44  110 1    
    87   45   46 1    
    88   45   47 1    
    89   45  111 1    
    90   46  112 1    
    91   46  113 1    
    92   46  114 1    
    93   47   48 2    
    94   47   49 am   BACKBONE|DICT|INTERRES
    95   49   50 1    
    96   49  115 1    
    97   50   51 1    
    98   50   52 1    
    99   50  116 1    
   100   51  117 1    
   101   51  118 1    
   102   51  119 1    
   103   52   53 2    
   104   52   54 am   BACKBONE|DICT|INTERRES
   105   54   55 1    
   106   54  120 1    
   107   55   56 1    
   108   55   57 1    
   109   55  121 1    
   110   56  122 1    
   111   56  123 1    
   112   56  124 1    
   113   57   58 2    
   114   57   59 am   BACKBONE|DICT|INTERRES
   115   59   60 1    
   116   59  125 1    
   117   60   61 1    
   118   60   62 1    
   119   60  126 1    
   120   61  127 1    
   121   61  128 1    
   122   61  129 1    
   123   62   63 2    
   124   62   64 am   BACKBONE|DICT|INTERRES
   125   64   65 1    
   126   64  130 1    
   127   65   66 1    
   128   65   69 1    
   129   65  131 1    
   130   66   67 am   BACKBONE|DICT|INTERRES
   131   66   68 2    
   132   67  132 1    
   133   67  133 1    
   134   69   70 1    
   135   69  134 1    
   136   69  135 1    
   137   70   71 1    
   138   71  136 1    
   139   71  137 1    
@<TRIPOS>SUBSTRUCTURE
     1 UNK         1 GROUP             0       ****    0 ROOT    
