@<TRIPOS>MOLECULE
3R137
137   139    1
SMALL
USER_CHARGES


@<TRIPOS>ATOM
      1 CA         27.0319    1.2415    0.2332 C.3       0 UNK        -0.2020 
      2 C          27.1938   -0.0690   -0.5204 C.2       0 UNK         0.4855 
      3 O          26.7360   -0.1814   -1.6571 O.2       0 UNK        -0.5197 
      4 N          27.8431   -1.0636    0.0974 N.am      1 UNK        -0.4892 
      5 CA         28.0986   -2.3870   -0.4823 C.3       1 UNK         0.0835 
      6 C6         29.0200   -3.2545    0.4156 C.3       12 UNK        -0.0855 
      7 S7         30.5882   -2.4250    0.8596 S.3       12 UNK        -0.2931 
      8 C8         31.7506   -3.0981   -0.3713 C.3       12 UNK         0.0378 
      9 C9         31.3991   -2.6355   -1.7767 C.ar      12 UNK        -0.0802 
     10 C10        31.7314   -1.3444   -2.1968 C.ar      12 UNK        -0.0944 
     11 C11        31.3754   -0.8940   -3.4718 C.ar      12 UNK        -0.0787 
     12 C12        30.6594   -1.7485   -4.3189 C.ar      12 UNK        -0.0862 
     13 C13        30.3512   -3.0545   -3.9227 C.ar      12 UNK        -0.0733 
     14 C14        30.7284   -3.4931   -2.6515 C.ar      12 UNK        -0.0832 
     15 C15        29.6340   -4.0071   -4.8668 C.3       12 UNK         0.0240 
     16 S16        28.0249   -3.3506   -5.4013 S.3       12 UNK        -0.2522 
     17 C17        28.3169   -3.0623   -7.1837 C.3       12 UNK        -0.0967 
     18 CA         27.5760   -1.8231   -7.7381 C.3       5 UNK         0.0660 
     19 N          26.1513   -1.8488   -7.4013 N.am      5 UNK        -0.4015 
     20 C          25.2136   -1.0709   -7.9529 C.2       4 UNK         0.4946 
     21 O          25.4391   -0.2458   -8.8373 O.2       4 UNK        -0.5353 
     22 CA         23.7943   -1.2073   -7.3800 C.3       4 UNK         0.0277 
     23 CB         23.0839   -2.4369   -7.9674 C.3       4 UNK        -0.1981 
     24 N          23.7675   -1.2744   -5.9147 N.am      4 UNK        -0.4209 
     25 C          24.1947   -0.3052   -5.0960 C.2       3 UNK         0.4942 
     26 O          24.7244    0.7323   -5.4911 O.2       3 UNK        -0.5208 
     27 CA         24.0168   -0.5216   -3.5867 C.3       3 UNK         0.0250 
     28 CB         22.5317   -0.4785   -3.1754 C.3       3 UNK        -0.1990 
     29 N          24.6997   -1.7106   -3.0616 N.am      3 UNK        -0.4232 
     30 C          24.4265   -3.0073   -3.2795 C.2       2 UNK         0.4993 
     31 O          23.5404   -3.3932   -4.0444 O.2       2 UNK        -0.5286 
     32 CA         25.2756   -4.0514   -2.5246 C.3       2 UNK         0.0209 
     33 CB         25.5542   -5.3015   -3.3799 C.3       2 UNK        -0.1931 
     34 N          26.5445   -3.4896   -2.0431 N.am      2 UNK        -0.4546 
     35 C          26.7703   -3.1161   -0.7756 C.2       1 UNK         0.5154 
     36 O          25.9685   -3.2950    0.1446 O.2       1 UNK        -0.5181 
     37 C          28.2706   -0.5105   -7.3232 C.2       5 UNK         0.5014 
     38 O          29.1928   -0.0779   -8.0168 O.2       5 UNK        -0.5248 
     39 N          27.8187    0.0983   -6.2177 N.am      6 UNK        -0.4434 
     40 CA         28.2985    1.3912   -5.7336 C.3       6 UNK         0.0363 
     41 CB         27.9507    1.5558   -4.2467 C.3       6 UNK        -0.1936 
     42 C          27.7414    2.5497   -6.5725 C.2       6 UNK         0.5081 
     43 O          28.4928    3.4657   -6.9018 O.2       6 UNK        -0.5248 
     44 N          26.4572    2.4681   -6.9513 N.am      7 UNK        -0.4718 
     45 CA         25.7911    3.4036   -7.8634 C.3       7 UNK         0.0273 
     46 CB         24.2839    3.1053   -7.8989 C.3       7 UNK        -0.1935 
     47 C          26.3891    3.3765   -9.2808 C.2       7 UNK         0.5018 
     48 O          26.5676    4.4356   -9.8831 O.2       7 UNK        -0.5186 
     49 N          26.7283    2.1739   -9.7675 N.am      8 UNK        -0.4240 
     50 CA         27.4652    1.9533  -11.0158 C.3       8 UNK         0.0235 
     51 CB         27.3316    0.4759  -11.4206 C.3       8 UNK        -0.2000 
     52 C          28.9541    2.3441  -10.9325 C.2       8 UNK         0.4941 
     53 O          29.5893    2.4789  -11.9790 O.2       8 UNK        -0.5273 
     54 N          29.4807    2.4981   -9.7074 N.am      9 UNK        -0.4262 
     55 CA         30.8749    2.7824   -9.3522 C.3       9 UNK         0.0264 
     56 CB         31.2769    4.2038   -9.7994 C.3       9 UNK        -0.1955 
     57 C          31.8452    1.6901   -9.8417 C.2       9 UNK         0.5031 
     58 O          32.9153    2.0057  -10.3669 O.2       9 UNK        -0.5390 
     59 N          31.4428    0.4236   -9.6697 N.am      10 UNK        -0.4204 
     60 CA         32.2416   -0.7561   -9.9959 C.3       10 UNK         0.0237 
     61 CB         31.3084   -1.9535  -10.2615 C.3       10 UNK        -0.1985 
     62 C          33.2496   -1.0193   -8.8679 C.2       10 UNK         0.4970 
     63 O          34.4293   -0.7009   -9.0194 O.2       10 UNK        -0.4914 
     64 N          32.7463   -1.5592   -7.7503 N.am      11 UNK        -0.4285 
     65 CA         33.4520   -1.7291   -6.4665 C.3       11 UNK         0.1007 
     66 C          34.6976   -2.6667   -6.5012 C.2       11 UNK         0.5703 
     67 N          34.8174   -3.5605   -7.4759 N.am      11 UNK        -0.7361 
     68 O          35.5521   -2.6118   -5.6196 O.2       11 UNK        -0.4986 
     69 C69        33.7253   -0.3705   -5.7530 C.3       12 UNK        -0.0947 
     70 S70        32.2422    0.6946   -5.6452 S.3       12 UNK        -0.2240 
     71 C71        31.7526    0.5252   -3.8941 C.3       12 UNK         0.0194 
     72 H72        27.4888    2.0545   -0.3304 H         1 UNK         0.0906 
     73 H73        27.4975    1.2065    1.2179 H         1 UNK         0.0906 
     74 H74        25.9745    1.4695    0.3639 H         1 UNK         0.0906 
     75 H75        28.2012   -0.9263    1.0318 H         1 UNK         0.3140 
     76 H76        28.6081   -2.2130   -1.4313 H         1 UNK         0.1085 
     77 H77        29.2415   -4.2074   -0.0686 H         1 UNK         0.0836 
     78 H78        28.5101   -3.5068    1.3477 H         1 UNK         0.0836 
     79 H79        32.7603   -2.7682   -0.1221 H         1 UNK         0.0731 
     80 H80        31.7619   -4.1874   -0.3080 H         1 UNK         0.0731 
     81 H81        32.2576   -0.6851   -1.5198 H         1 UNK         0.1312 
     82 H82        30.3594   -1.4048   -5.2984 H         1 UNK         0.1406 
     83 H83        30.4882   -4.4993   -2.3351 H         1 UNK         0.1631 
     84 H84        29.4559   -4.9680   -4.3816 H         1 UNK         0.0717 
     85 H85        30.2787   -4.2206   -5.7197 H         1 UNK         0.0717 
     86 H86        29.3858   -2.9861   -7.3891 H         1 UNK         0.0934 
     87 H87        27.9825   -3.9527   -7.7187 H         1 UNK         0.0934 
     88 H88        27.6436   -1.8686   -8.8272 H         1 UNK         0.0739 
     89 H89        25.8822   -2.4921   -6.6708 H         1 UNK         0.3093 
     90 H90        23.2364   -0.3171   -7.6779 H         1 UNK         0.0818 
     91 H91        22.0421   -2.4810   -7.6491 H         1 UNK         0.0819 
     92 H92        23.0867   -2.4056   -9.0580 H         1 UNK         0.0819 
     93 H93        23.5653   -3.3678   -7.6652 H         1 UNK         0.0819 
     94 H94        23.4040   -2.1201   -5.4814 H         1 UNK         0.3041 
     95 H95        24.5026    0.3257   -3.0999 H         1 UNK         0.0784 
     96 H96        22.0666    0.4530   -3.5009 H         1 UNK         0.0793 
     97 H97        21.9562   -1.2954   -3.6113 H         1 UNK         0.0793 
     98 H98        22.4214   -0.5332   -2.0924 H         1 UNK         0.0793 
     99 H99        25.4830   -1.4851   -2.4537 H         1 UNK         0.3024 
    100 H100       24.6661   -4.3736   -1.6773 H         1 UNK         0.1171 
    101 H101       24.6263   -5.8224   -3.6196 H         1 UNK         0.0786 
    102 H102       26.1925   -6.0106   -2.8526 H         1 UNK         0.0786 
    103 H103       26.0342   -5.0548   -4.3251 H         1 UNK         0.0786 
    104 H104       27.2382   -3.2884   -2.7514 H         1 UNK         0.2977 
    105 H105       27.0433   -0.3133   -5.7195 H         1 UNK         0.3127 
    106 H106       29.3854    1.4105   -5.8278 H         1 UNK         0.0770 
    107 H107       26.8744    1.5455   -4.0730 H         1 UNK         0.0814 
    108 H108       28.3343    2.5003   -3.8595 H         1 UNK         0.0814 
    109 H109       28.3917    0.7578   -3.6490 H         1 UNK         0.0814 
    110 H110       25.8851    1.7150   -6.5741 H         1 UNK         0.2983 
    111 H111       25.9314    4.4111   -7.4658 H         1 UNK         0.0947 
    112 H112       23.7614    3.8088   -8.5485 H         1 UNK         0.0806 
    113 H113       23.8406    3.1881   -6.9064 H         1 UNK         0.0806 
    114 H114       24.0792    2.1014   -8.2719 H         1 UNK         0.0806 
    115 H115       26.4510    1.3438   -9.2484 H         1 UNK         0.3000 
    116 H116       27.0084    2.5669  -11.7953 H         1 UNK         0.0850 
    117 H117       27.8285    0.2832  -12.3724 H         1 UNK         0.0810 
    118 H118       26.2864    0.1883  -11.5365 H         1 UNK         0.0810 
    119 H119       27.7808   -0.1850  -10.6785 H         1 UNK         0.0810 
    120 H120       28.8636    2.3613   -8.9177 H         1 UNK         0.3040 
    121 H121       30.9196    2.7559   -8.2621 H         1 UNK         0.0766 
    122 H122       31.2992    4.2962  -10.8856 H         1 UNK         0.0812 
    123 H123       30.5830    4.9500   -9.4123 H         1 UNK         0.0812 
    124 H124       32.2700    4.4627   -9.4303 H         1 UNK         0.0812 
    125 H125       30.5698    0.2649   -9.1667 H         1 UNK         0.3205 
    126 H126       32.8074   -0.5654  -10.9106 H         1 UNK         0.0754 
    127 H127       30.7006   -1.7807  -11.1501 H         1 UNK         0.0769 
    128 H128       30.6255   -2.1432   -9.4335 H         1 UNK         0.0769 
    129 H129       31.8806   -2.8657  -10.4359 H         1 UNK         0.0769 
    130 H130       31.7630   -1.7788   -7.7346 H         1 UNK         0.2981 
    131 H131       32.7556   -2.2813   -5.8397 H         1 UNK         0.0541 
    132 H132       34.1239   -3.6196   -8.2036 H         1 UNK         0.3459 
    133 H133       35.6189   -4.1712   -7.4895 H         1 UNK         0.3459 
    134 H134       34.4981    0.1851   -6.2864 H         1 UNK         0.0612 
    135 H135       34.1114   -0.5363   -4.7458 H         1 UNK         0.0612 
    136 H136       32.5699    0.9011   -3.2768 H         1 UNK         0.0624 
    137 H137       30.9012    1.1798   -3.7074 H         1 UNK         0.0624 
@<TRIPOS>BOND
     1    1    2 1    
     2    1   72 1    
     3    1   73 1    
     4    1   74 1    
     5    2    3 2    
     6    2    4 am   BACKBONE|DICT|INTERRES
     7    4    5 1    
     8    4   75 1    
     9    5    6 1    
    10    5   35 1    
    11    5   76 1    
    12    6    7 1    
    13    6   77 1    
    14    6   78 1    
    15    7    8 1    
    16    8    9 1    
    17    8   79 1    
    18    8   80 1    
    19    9   10 ar   
    20    9   14 ar   
    21   10   11 ar   
    22   10   81 1    
    23   11   12 ar   
    24   11   71 1    
    25   12   13 ar   
    26   12   82 1    
    27   13   14 ar   
    28   13   15 1    
    29   14   83 1    
    30   15   16 1    
    31   15   84 1    
    32   15   85 1    
    33   16   17 1    
    34   17   18 1    
    35   17   86 1    
    36   17   87 1    
    37   18   19 1    
    38   18   37 1    
    39   18   88 1    
    40   19   20 am   BACKBONE|DICT|INTERRES
    41   19   89 1    
    42   20   21 2    
    43   20   22 1    
    44   22   23 1    
    45   22   24 1    
    46   22   90 1    
    47   23   91 1    
    48   23   92 1    
    49   23   93 1    
    50   24   25 am   BACKBONE|DICT|INTERRES
    51   24   94 1    
    52   25   26 2    
    53   25   27 1    
    54   27   28 1    
    55   27   29 1    
    56   27   95 1    
    57   28   96 1    
    58   28   97 1    
    59   28   98 1    
    60   29   30 am   BACKBONE|DICT|INTERRES
    61   29   99 1    
    62   30   31 2    
    63   30   32 1    
    64   32   33 1    
    65   32   34 1    
    66   32  100 1    
    67   33  101 1    
    68   33  102 1    
    69   33  103 1    
    70   34   35 am   BACKBONE|DICT|INTERRES
    71   34  104 1    
    72   35   36 2    
    73   37   38 2    
    74   37   39 am   BACKBONE|DICT|INTERRES
    75   39   40 1    
    76   39  105 1    
    77   40   41 1    
    78   40   42 1    
    79   40  106 1    
    80   41  107 1    
    81   41  108 1    
    82   41  109 1    
    83   42   43 2    
    84   42   44 am   BACKBONE|DICT|INTERRES
    85   44   45 1    
    86   44  110 1    
    87   45   46 1    
    88   45   47 1    
    89   45  111 1    
    90   46  112 1    
    91   46  113 1    
    92   46  114 1    
    93   47   48 2    
    94   47   49 am   BACKBONE|DICT|INTERRES
    95   49   50 1    
    96   49  115 1    
    97   50   51 1    
    98   50   52 1    
    99   50  116 1    
   100   51  117 1    
   101   51  118 1    
   102   51  119 1    
   103   52   53 2    
   104   52   54 am   BACKBONE|DICT|INTERRES
   105   54   55 1    
   106   54  120 1    
   107   55   56 1    
   108   55   57 1    
   109   55  121 1    
   110   56  122 1    
   111   56  123 1    
   112   56  124 1    
   113   57   58 2    
   114   57   59 am   BACKBONE|DICT|INTERRES
   115   59   60 1    
   116   59  125 1    
   117   60   61 1    
   118   60   62 1    
   119   60  126 1    
   120   61  127 1    
   121   61  128 1    
   122   61  129 1    
   123   62   63 2    
   124   62   64 am   BACKBONE|DICT|INTERRES
   125   64   65 1    
   126   64  130 1    
   127   65   66 1    
   128   65   69 1    
   129   65  131 1    
   130   66   67 am   BACKBONE|DICT|INTERRES
   131   66   68 2    
   132   67  132 1    
   133   67  133 1    
   134   69   70 1    
   135   69  134 1    
   136   69  135 1    
   137   70   71 1    
   138   71  136 1    
   139   71  137 1    
@<TRIPOS>SUBSTRUCTURE
     1 UNK         1 GROUP             0       ****    0 ROOT    
