@<TRIPOS>MOLECULE
3R137
137   139    1
SMALL
USER_CHARGES


@<TRIPOS>ATOM
      1 CA         23.9980   -2.2512    0.5517 C.3       0 UNK        -0.2020 
      2 C          25.4266   -2.2082    0.0322 C.2       0 UNK         0.4855 
      3 O          26.0992   -1.1866    0.1745 O.2       0 UNK        -0.5197 
      4 N          25.8904   -3.3041   -0.5841 N.am      1 UNK        -0.4892 
      5 CA         27.2208   -3.4561   -1.1892 C.3       1 UNK         0.0835 
      6 C6         27.4286   -4.9035   -1.7221 C.3       12 UNK        -0.0855 
      7 S7         29.0433   -5.6768   -1.3414 S.3       12 UNK        -0.2931 
      8 C8         30.3136   -4.4263   -1.7592 C.3       12 UNK         0.0378 
      9 C9         30.3757   -3.9668   -3.2176 C.ar      12 UNK        -0.0802 
     10 C10        31.1413   -2.8360   -3.5170 C.ar      12 UNK        -0.0944 
     11 C11        31.2237   -2.3455   -4.8230 C.ar      12 UNK        -0.0787 
     12 C12        30.5203   -2.9895   -5.8442 C.ar      12 UNK        -0.0862 
     13 C13        29.7434   -4.1183   -5.5614 C.ar      12 UNK        -0.0733 
     14 C14        29.6982   -4.6170   -4.2569 C.ar      12 UNK        -0.0832 
     15 C15        28.9140   -4.7821   -6.6517 C.3       12 UNK         0.0240 
     16 S16        27.1513   -4.3302   -6.5146 S.3       12 UNK        -0.2522 
     17 C17        27.2585   -2.5384   -6.8200 C.3       12 UNK        -0.0967 
     18 CA         25.8878   -1.8156   -6.8675 C.3       5 UNK         0.0660 
     19 N          25.1741   -1.9328   -5.5924 N.am      5 UNK        -0.4015 
     20 C          23.8563   -1.7819   -5.4081 C.2       4 UNK         0.4946 
     21 O          23.0600   -1.5679   -6.3231 O.2       4 UNK        -0.5353 
     22 CA         23.3619   -1.7784   -3.9554 C.3       4 UNK         0.0277 
     23 CB         23.3821   -3.1915   -3.3480 C.3       4 UNK        -0.1981 
     24 N          24.1765   -0.8655   -3.1508 N.am      4 UNK        -0.4209 
     25 C          23.9872    0.4621   -3.0939 C.2       3 UNK         0.4942 
     26 O          23.0365    1.0372   -3.6240 O.2       3 UNK        -0.5208 
     27 CA         25.0217    1.3009   -2.3216 C.3       3 UNK         0.0250 
     28 CB         24.4966    1.6567   -0.9213 C.3       3 UNK        -0.1990 
     29 N          26.3201    0.6322   -2.2048 N.am      3 UNK        -0.4232 
     30 C          27.2352    0.6015   -3.1867 C.2       2 UNK         0.4993 
     31 O          27.1113    1.2066   -4.2500 O.2       2 UNK        -0.5286 
     32 CA         28.4890   -0.2664   -2.9633 C.3       2 UNK         0.0209 
     33 CB         29.6477    0.5932   -2.4338 C.3       2 UNK        -0.1931 
     34 N          28.2712   -1.3996   -2.0566 N.am      2 UNK        -0.4546 
     35 C          27.4153   -2.4015   -2.2993 C.2       1 UNK         0.5154 
     36 O          26.7247   -2.4672   -3.3178 O.2       1 UNK        -0.5181 
     37 C          26.0652   -0.3336   -7.2756 C.2       5 UNK         0.5014 
     38 O          27.1671    0.0598   -7.6554 O.2       5 UNK        -0.5248 
     39 N          24.9975    0.4743   -7.2056 N.am      6 UNK        -0.4434 
     40 CA         25.0220    1.9273   -7.4219 C.3       6 UNK         0.0363 
     41 CB         23.6214    2.5028   -7.1613 C.3       6 UNK        -0.1936 
     42 C          25.5341    2.3567   -8.8099 C.2       6 UNK         0.5081 
     43 O          26.1514    3.4147   -8.9307 O.2       6 UNK        -0.5248 
     44 N          25.2983    1.5139   -9.8237 N.am      7 UNK        -0.4718 
     45 CA         25.7814    1.6941  -11.1946 C.3       7 UNK         0.0273 
     46 CB         24.8940    0.8661  -12.1396 C.3       7 UNK        -0.1935 
     47 C          27.2658    1.3222  -11.3885 C.2       7 UNK         0.5018 
     48 O          27.8121    1.6203  -12.4515 O.2       7 UNK        -0.5186 
     49 N          27.8887    0.6711  -10.3960 N.am      8 UNK        -0.4240 
     50 CA         29.2658    0.1746  -10.4438 C.3       8 UNK         0.0235 
     51 CB         29.2494   -1.3424  -10.7121 C.3       8 UNK        -0.2000 
     52 C          30.0342    0.5346   -9.1615 C.2       8 UNK         0.4941 
     53 O          30.9622   -0.1831   -8.7811 O.2       8 UNK        -0.5273 
     54 N          29.6648    1.6517   -8.5181 N.am      9 UNK        -0.4262 
     55 CA         30.2338    2.1531   -7.2616 C.3       9 UNK         0.0264 
     56 CB         29.2223    3.1127   -6.6089 C.3       9 UNK        -0.1955 
     57 C          31.6331    2.7837   -7.4395 C.2       9 UNK         0.5031 
     58 O          31.8835    3.8924   -6.9633 O.2       9 UNK        -0.5390 
     59 N          32.5178    2.0594   -8.1290 N.am      10 UNK        -0.4204 
     60 CA         33.9053    2.4076   -8.4265 C.3       10 UNK         0.0237 
     61 CB         33.9719    3.2703   -9.7025 C.3       10 UNK        -0.1985 
     62 C          34.7335    1.1156   -8.5198 C.2       10 UNK         0.4970 
     63 O          35.5431    0.9575   -9.4346 O.2       10 UNK        -0.4914 
     64 N          34.4824    0.1987   -7.5783 N.am      11 UNK        -0.4285 
     65 CA         35.1078   -1.1276   -7.4715 C.3       11 UNK         0.1007 
     66 C          36.5956   -1.1294   -7.0087 C.2       11 UNK         0.5703 
     67 N          37.1527   -0.0170   -6.5439 N.am      11 UNK        -0.7361 
     68 O          37.2611   -2.1595   -7.0880 O.2       11 UNK        -0.4986 
     69 C69        34.2267   -2.0884   -6.6260 C.3       12 UNK        -0.0947 
     70 S70        33.8327   -1.4281   -4.9674 S.3       12 UNK        -0.2240 
     71 C71        32.0479   -1.0997   -5.1108 C.3       12 UNK         0.0194 
     72 H72        23.5719   -3.2524    0.4913 H         1 UNK         0.0906 
     73 H73        23.3673   -1.5778   -0.0280 H         1 UNK         0.0906 
     74 H74        23.9682   -1.9342    1.5938 H         1 UNK         0.0906 
     75 H75        25.2800   -4.1033   -0.6783 H         1 UNK         0.3140 
     76 H76        27.9391   -3.2657   -0.3897 H         1 UNK         0.1085 
     77 H77        27.2341   -4.9812   -2.7935 H         1 UNK         0.0836 
     78 H78        26.6919   -5.5721   -1.2737 H         1 UNK         0.0836 
     79 H79        30.1850   -3.5614   -1.1081 H         1 UNK         0.0731 
     80 H80        31.2863   -4.8480   -1.5027 H         1 UNK         0.0731 
     81 H81        31.6768   -2.3270   -2.7270 H         1 UNK         0.1312 
     82 H82        30.5587   -2.5984   -6.8525 H         1 UNK         0.1406 
     83 H83        29.1043   -5.4976   -4.0614 H         1 UNK         0.1631 
     84 H84        29.0102   -5.8662   -6.5767 H         1 UNK         0.0717 
     85 H85        29.2841   -4.5090   -7.6412 H         1 UNK         0.0717 
     86 H86        27.8804   -2.0889   -6.0435 H         1 UNK         0.0934 
     87 H87        27.7971   -2.4069   -7.7599 H         1 UNK         0.0934 
     88 H88        25.2849   -2.2871   -7.6462 H         1 UNK         0.0739 
     89 H89        25.7612   -2.1162   -4.7792 H         1 UNK         0.3093 
     90 H90        22.3263   -1.4305   -3.9521 H         1 UNK         0.0818 
     91 H91        22.7480   -3.8671   -3.9234 H         1 UNK         0.0819 
     92 H92        24.3825   -3.6237   -3.3340 H         1 UNK         0.0819 
     93 H93        23.0037   -3.1874   -2.3260 H         1 UNK         0.0819 
     94 H94        25.0234   -1.2501   -2.7536 H         1 UNK         0.3041 
     95 H95        25.1588    2.2343   -2.8723 H         1 UNK         0.0784 
     96 H96        23.5598    2.2117   -0.9872 H         1 UNK         0.0793 
     97 H97        24.3050    0.7690   -0.3191 H         1 UNK         0.0793 
     98 H98        25.2055    2.2827   -0.3791 H         1 UNK         0.0793 
     99 H99        26.4855    0.0994   -1.3555 H         1 UNK         0.3024 
    100 H100       28.7758   -0.6734   -3.9362 H         1 UNK         0.1171 
    101 H101       29.8791    1.4027   -3.1277 H         1 UNK         0.0786 
    102 H102       29.4060    1.0469   -1.4717 H         1 UNK         0.0786 
    103 H103       30.5565    0.0055   -2.3071 H         1 UNK         0.0786 
    104 H104       28.7565   -1.3705   -1.1716 H         1 UNK         0.2977 
    105 H105       24.1170    0.0609   -6.9151 H         1 UNK         0.3127 
    106 H106       25.7063    2.3484   -6.6820 H         1 UNK         0.0770 
    107 H107       22.8805    2.0873   -7.8453 H         1 UNK         0.0814 
    108 H108       23.6142    3.5861   -7.2897 H         1 UNK         0.0814 
    109 H109       23.2917    2.2971   -6.1427 H         1 UNK         0.0814 
    110 H110       24.7856    0.6662   -9.6275 H         1 UNK         0.2983 
    111 H111       25.6771    2.7475  -11.4646 H         1 UNK         0.0947 
    112 H112       24.9591   -0.2011  -11.9236 H         1 UNK         0.0806 
    113 H113       25.1920    1.0060  -13.1798 H         1 UNK         0.0806 
    114 H114       23.8476    1.1623  -12.0636 H         1 UNK         0.0806 
    115 H115       27.3983    0.5020   -9.5203 H         1 UNK         0.3000 
    116 H116       29.8099    0.6571  -11.2582 H         1 UNK         0.0850 
    117 H117       30.2616   -1.7382  -10.8053 H         1 UNK         0.0810 
    118 H118       28.7270   -1.5746  -11.6402 H         1 UNK         0.0810 
    119 H119       28.7580   -1.8862   -9.9055 H         1 UNK         0.0810 
    120 H120       28.9038    2.1899   -8.9070 H         1 UNK         0.3040 
    121 H121       30.3544    1.3038   -6.5860 H         1 UNK         0.0766 
    122 H122       29.0420    3.9926   -7.2275 H         1 UNK         0.0812 
    123 H123       29.5781    3.4588   -5.6376 H         1 UNK         0.0812 
    124 H124       28.2649    2.6183   -6.4403 H         1 UNK         0.0812 
    125 H125       32.1995    1.1506   -8.4668 H         1 UNK         0.3205 
    126 H126       34.3159    2.9844   -7.5952 H         1 UNK         0.0754 
    127 H127       34.9989    3.5613   -9.9269 H         1 UNK         0.0769 
    128 H128       33.3944    4.1882   -9.5910 H         1 UNK         0.0769 
    129 H129       33.5844    2.7340  -10.5695 H         1 UNK         0.0769 
    130 H130       33.8286    0.4238   -6.8439 H         1 UNK         0.2981 
    131 H131       35.1318   -1.5394   -8.4822 H         1 UNK         0.0541 
    132 H132       38.1178   -0.0323   -6.2543 H         1 UNK         0.3459 
    133 H133       36.6167    0.8321   -6.4721 H         1 UNK         0.3459 
    134 H134       34.7087   -3.0604   -6.5074 H         1 UNK         0.0612 
    135 H135       33.2977   -2.2921   -7.1608 H         1 UNK         0.0612 
    136 H136       31.7792   -0.3203   -4.3976 H         1 UNK         0.0624 
    137 H137       31.8209   -0.6974   -6.0992 H         1 UNK         0.0624 
@<TRIPOS>BOND
     1    1    2 1    
     2    1   72 1    
     3    1   73 1    
     4    1   74 1    
     5    2    3 2    
     6    2    4 am   BACKBONE|DICT|INTERRES
     7    4    5 1    
     8    4   75 1    
     9    5    6 1    
    10    5   35 1    
    11    5   76 1    
    12    6    7 1    
    13    6   77 1    
    14    6   78 1    
    15    7    8 1    
    16    8    9 1    
    17    8   79 1    
    18    8   80 1    
    19    9   10 ar   
    20    9   14 ar   
    21   10   11 ar   
    22   10   81 1    
    23   11   12 ar   
    24   11   71 1    
    25   12   13 ar   
    26   12   82 1    
    27   13   14 ar   
    28   13   15 1    
    29   14   83 1    
    30   15   16 1    
    31   15   84 1    
    32   15   85 1    
    33   16   17 1    
    34   17   18 1    
    35   17   86 1    
    36   17   87 1    
    37   18   19 1    
    38   18   37 1    
    39   18   88 1    
    40   19   20 am   BACKBONE|DICT|INTERRES
    41   19   89 1    
    42   20   21 2    
    43   20   22 1    
    44   22   23 1    
    45   22   24 1    
    46   22   90 1    
    47   23   91 1    
    48   23   92 1    
    49   23   93 1    
    50   24   25 am   BACKBONE|DICT|INTERRES
    51   24   94 1    
    52   25   26 2    
    53   25   27 1    
    54   27   28 1    
    55   27   29 1    
    56   27   95 1    
    57   28   96 1    
    58   28   97 1    
    59   28   98 1    
    60   29   30 am   BACKBONE|DICT|INTERRES
    61   29   99 1    
    62   30   31 2    
    63   30   32 1    
    64   32   33 1    
    65   32   34 1    
    66   32  100 1    
    67   33  101 1    
    68   33  102 1    
    69   33  103 1    
    70   34   35 am   BACKBONE|DICT|INTERRES
    71   34  104 1    
    72   35   36 2    
    73   37   38 2    
    74   37   39 am   BACKBONE|DICT|INTERRES
    75   39   40 1    
    76   39  105 1    
    77   40   41 1    
    78   40   42 1    
    79   40  106 1    
    80   41  107 1    
    81   41  108 1    
    82   41  109 1    
    83   42   43 2    
    84   42   44 am   BACKBONE|DICT|INTERRES
    85   44   45 1    
    86   44  110 1    
    87   45   46 1    
    88   45   47 1    
    89   45  111 1    
    90   46  112 1    
    91   46  113 1    
    92   46  114 1    
    93   47   48 2    
    94   47   49 am   BACKBONE|DICT|INTERRES
    95   49   50 1    
    96   49  115 1    
    97   50   51 1    
    98   50   52 1    
    99   50  116 1    
   100   51  117 1    
   101   51  118 1    
   102   51  119 1    
   103   52   53 2    
   104   52   54 am   BACKBONE|DICT|INTERRES
   105   54   55 1    
   106   54  120 1    
   107   55   56 1    
   108   55   57 1    
   109   55  121 1    
   110   56  122 1    
   111   56  123 1    
   112   56  124 1    
   113   57   58 2    
   114   57   59 am   BACKBONE|DICT|INTERRES
   115   59   60 1    
   116   59  125 1    
   117   60   61 1    
   118   60   62 1    
   119   60  126 1    
   120   61  127 1    
   121   61  128 1    
   122   61  129 1    
   123   62   63 2    
   124   62   64 am   BACKBONE|DICT|INTERRES
   125   64   65 1    
   126   64  130 1    
   127   65   66 1    
   128   65   69 1    
   129   65  131 1    
   130   66   67 am   BACKBONE|DICT|INTERRES
   131   66   68 2    
   132   67  132 1    
   133   67  133 1    
   134   69   70 1    
   135   69  134 1    
   136   69  135 1    
   137   70   71 1    
   138   71  136 1    
   139   71  137 1    
@<TRIPOS>SUBSTRUCTURE
     1 UNK         1 GROUP             0       ****    0 ROOT    
