@<TRIPOS>MOLECULE
3R137
137   139    1
SMALL
USER_CHARGES


@<TRIPOS>ATOM
      1 CA         29.3959   -0.2153   -3.2629 C.3       0 UNK        -0.2020 
      2 C          29.7934    0.0300   -1.8106 C.2       0 UNK         0.4855 
      3 O          30.3517    1.0825   -1.5091 O.2       0 UNK        -0.5197 
      4 N          29.5459   -0.8996   -0.8776 N.am      1 UNK        -0.4892 
      5 CA         28.8183   -2.1618   -1.0495 C.3       1 UNK         0.0835 
      6 C6         29.1780   -3.1505    0.0903 C.3       12 UNK        -0.0855 
      7 S7         28.7371   -4.8845   -0.2794 S.3       12 UNK        -0.2931 
      8 C8         30.2977   -5.5378   -0.9584 C.3       12 UNK         0.0378 
      9 C9         30.6158   -4.9114   -2.3071 C.ar      12 UNK        -0.0802 
     10 C10        31.6051   -3.9272   -2.4160 C.ar      12 UNK        -0.0944 
     11 C11        31.8525   -3.3095   -3.6451 C.ar      12 UNK        -0.0787 
     12 C12        31.1239   -3.7020   -4.7688 C.ar      12 UNK        -0.0862 
     13 C13        30.1251   -4.6733   -4.6718 C.ar      12 UNK        -0.0733 
     14 C14        29.8842   -5.2858   -3.4394 C.ar      12 UNK        -0.0832 
     15 C15        29.2860   -5.0310   -5.8917 C.3       12 UNK         0.0240 
     16 S16        27.6123   -4.3106   -5.7999 S.3       12 UNK        -0.2522 
     17 C17        27.9630   -2.5219   -5.7203 C.3       12 UNK        -0.0967 
     18 CA         27.2386   -1.7008   -6.8120 C.3       5 UNK         0.0660 
     19 N          25.7818   -1.8251   -6.7240 N.am      5 UNK        -0.4015 
     20 C          24.9132   -1.3833   -7.6435 C.2       4 UNK         0.4946 
     21 O          25.2452   -0.8499   -8.7015 O.2       4 UNK        -0.5353 
     22 CA         23.4197   -1.5267   -7.3048 C.3       4 UNK         0.0277 
     23 CB         22.9251   -2.9463   -7.6253 C.3       4 UNK        -0.1981 
     24 N          23.1249   -1.2044   -5.9054 N.am      4 UNK        -0.4209 
     25 C          23.2580    0.0176   -5.3685 C.2       3 UNK         0.4942 
     26 O          23.5912    1.0132   -6.0090 O.2       3 UNK        -0.5208 
     27 CA         23.0339    0.1426   -3.8510 C.3       3 UNK         0.0250 
     28 CB         21.5416    0.3378   -3.5396 C.3       3 UNK        -0.1990 
     29 N          23.5573   -0.9900   -3.0770 N.am      3 UNK        -0.4232 
     30 C          24.8365   -1.3903   -3.0803 C.2       2 UNK         0.4993 
     31 O          25.7120   -0.8681   -3.7745 O.2       2 UNK        -0.5286 
     32 CA         25.1730   -2.6175   -2.2167 C.3       2 UNK         0.0209 
     33 CB         24.7123   -3.9058   -2.9195 C.3       2 UNK        -0.1931 
     34 N          26.6082   -2.7252   -1.9449 N.am      2 UNK        -0.4546 
     35 C          27.2984   -1.9094   -1.1379 C.2       1 UNK         0.5154 
     36 O          26.7848   -1.0083   -0.4691 O.2       1 UNK        -0.5181 
     37 C          27.6762   -0.2243   -6.7489 C.2       5 UNK         0.5014 
     38 O          28.5480    0.1851   -7.5174 O.2       5 UNK        -0.5248 
     39 N          27.0506    0.5484   -5.8489 N.am      6 UNK        -0.4434 
     40 CA         27.2528    1.9895   -5.7031 C.3       6 UNK         0.0363 
     41 CB         26.5374    2.4901   -4.4389 C.3       6 UNK        -0.1936 
     42 C          26.7990    2.7724   -6.9460 C.2       6 UNK         0.5081 
     43 O          27.5401    3.6371   -7.4112 O.2       6 UNK        -0.5248 
     44 N          25.6237    2.4276   -7.4938 N.am      7 UNK        -0.4718 
     45 CA         25.0842    2.9920   -8.7369 C.3       7 UNK         0.0273 
     46 CB         23.6446    2.4982   -8.9493 C.3       7 UNK        -0.1935 
     47 C          25.9513    2.6805   -9.9694 C.2       7 UNK         0.5018 
     48 O          26.1109    3.5464  -10.8302 O.2       7 UNK        -0.5186 
     49 N          26.5248    1.4699  -10.0138 N.am      8 UNK        -0.4240 
     50 CA         27.4991    1.0412  -11.0216 C.3       8 UNK         0.0235 
     51 CB         27.5979   -0.4936  -10.9974 C.3       8 UNK        -0.2000 
     52 C          28.8971    1.6681  -10.8442 C.2       8 UNK         0.4941 
     53 O          29.7186    1.5390  -11.7528 O.2       8 UNK        -0.5273 
     54 N          29.1501    2.3086   -9.6911 N.am      9 UNK        -0.4262 
     55 CA         30.4222    2.8892   -9.2455 C.3       9 UNK         0.0264 
     56 CB         30.8204    4.0939  -10.1245 C.3       9 UNK        -0.1955 
     57 C          31.5388    1.8349   -9.1132 C.2       9 UNK         0.5031 
     58 O          32.6847    2.0928   -9.4915 O.2       9 UNK        -0.5390 
     59 N          31.1806    0.6557   -8.5876 N.am      10 UNK        -0.4204 
     60 CA         32.0941   -0.4634   -8.3605 C.3       10 UNK         0.0237 
     61 CB         31.2674   -1.7241   -8.0754 C.3       10 UNK        -0.1985 
     62 C          33.0853   -0.1803   -7.2169 C.2       10 UNK         0.4970 
     63 O          32.7786    0.5979   -6.3108 O.2       10 UNK        -0.4914 
     64 N          34.2510   -0.8341   -7.2920 N.am      11 UNK        -0.4285 
     65 CA         35.4139   -0.6777   -6.3958 C.3       11 UNK         0.1007 
     66 C          36.1691    0.6805   -6.5400 C.2       11 UNK         0.5703 
     67 N          35.8523    1.5249   -7.5152 N.am      11 UNK        -0.7361 
     68 O          37.0890    0.9617   -5.7750 O.2       11 UNK        -0.4986 
     69 C69        35.1319   -1.0317   -4.9043 C.3       12 UNK        -0.0947 
     70 S70        34.3488   -2.6640   -4.6678 S.3       12 UNK        -0.2240 
     71 C71        32.8524   -2.1706   -3.7613 C.3       12 UNK         0.0194 
     72 H72        29.7668    0.5860   -3.9020 H         1 UNK         0.0906 
     73 H73        29.8136   -1.1487   -3.6356 H         1 UNK         0.0906 
     74 H74        28.3122   -0.2415   -3.3616 H         1 UNK         0.0906 
     75 H75        29.7925   -0.6816    0.0773 H         1 UNK         0.3140 
     76 H76        29.1381   -2.6031   -1.9935 H         1 UNK         0.1085 
     77 H77        30.2496   -3.1130    0.2940 H         1 UNK         0.0836 
     78 H78        28.6947   -2.8585    1.0250 H         1 UNK         0.0836 
     79 H79        31.1081   -5.3721   -0.2467 H         1 UNK         0.0731 
     80 H80        30.2091   -6.6190   -1.0738 H         1 UNK         0.0731 
     81 H81        32.1581   -3.6192   -1.5391 H         1 UNK         0.1312 
     82 H82        31.3226   -3.2262   -5.7160 H         1 UNK         0.1406 
     83 H83        29.1040   -6.0306   -3.3540 H         1 UNK         0.1631 
     84 H84        29.7710   -4.6952   -6.8098 H         1 UNK         0.0717 
     85 H85        29.2014   -6.1158   -5.9692 H         1 UNK         0.0717 
     86 H86        27.6881   -2.1797   -4.7235 H         1 UNK         0.0934 
     87 H87        29.0356   -2.3620   -5.8001 H         1 UNK         0.0934 
     88 H88        27.5440   -2.0869   -7.7869 H         1 UNK         0.0739 
     89 H89        25.4238   -2.2170   -5.8664 H         1 UNK         0.3093 
     90 H90        22.8698   -0.8237   -7.9343 H         1 UNK         0.0818 
     91 H91        21.8501   -3.0366   -7.4686 H         1 UNK         0.0819 
     92 H92        23.1205   -3.1994   -8.6684 H         1 UNK         0.0819 
     93 H93        23.4194   -3.6992   -7.0098 H         1 UNK         0.0819 
     94 H94        22.8344   -1.9636   -5.3070 H         1 UNK         0.3041 
     95 H95        23.5684    1.0347   -3.5183 H         1 UNK         0.0784 
     96 H96        21.1363    1.1872   -4.0918 H         1 UNK         0.0793 
     97 H97        20.9518   -0.5386   -3.8112 H         1 UNK         0.0793 
     98 H98        21.3797    0.5373   -2.4801 H         1 UNK         0.0793 
     99 H99        22.8949   -1.4790   -2.4917 H         1 UNK         0.3024 
    100 H100       24.6500   -2.5216   -1.2623 H         1 UNK         0.1171 
    101 H101       24.9311   -4.7862   -2.3145 H         1 UNK         0.0786 
    102 H102       23.6359   -3.8995   -3.0954 H         1 UNK         0.0786 
    103 H103       25.1999   -4.0367   -3.8862 H         1 UNK         0.0786 
    104 H104       27.1033   -3.4509   -2.4425 H         1 UNK         0.2977 
    105 H105       26.3919    0.1094   -5.2076 H         1 UNK         0.3127 
    106 H106       28.3240    2.1607   -5.5764 H         1 UNK         0.0770 
    107 H107       25.4584    2.3494   -4.5022 H         1 UNK         0.0814 
    108 H108       26.7188    3.5546   -4.2854 H         1 UNK         0.0814 
    109 H109       26.8903    1.9683   -3.5491 H         1 UNK         0.0814 
    110 H110       25.0397    1.7466   -7.0133 H         1 UNK         0.2983 
    111 H111       25.0588    4.0777   -8.6218 H         1 UNK         0.0947 
    112 H112       23.2165    2.9194   -9.8599 H         1 UNK         0.0806 
    113 H113       22.9991    2.7921   -8.1215 H         1 UNK         0.0806 
    114 H114       23.6001    1.4123   -9.0381 H         1 UNK         0.0806 
    115 H115       26.2714    0.7861   -9.3062 H         1 UNK         0.3000 
    116 H116       27.1306    1.3445  -12.0038 H         1 UNK         0.0850 
    117 H117       26.6286   -0.9568  -11.1828 H         1 UNK         0.0810 
    118 H118       27.9640   -0.8574  -10.0368 H         1 UNK         0.0810 
    119 H119       28.2821   -0.8559  -11.7657 H         1 UNK         0.0810 
    120 H120       28.4035    2.3515   -9.0078 H         1 UNK         0.3040 
    121 H121       30.2439    3.2645   -8.2367 H         1 UNK         0.0766 
    122 H122       30.0148    4.8259  -10.1808 H         1 UNK         0.0812 
    123 H123       31.0706    3.7898  -11.1412 H         1 UNK         0.0812 
    124 H124       31.6932    4.6037   -9.7147 H         1 UNK         0.0812 
    125 H125       30.2229    0.5369   -8.2602 H         1 UNK         0.3205 
    126 H126       32.6613   -0.6229   -9.2801 H         1 UNK         0.0754 
    127 H127       30.6718   -1.5987   -7.1733 H         1 UNK         0.0769 
    128 H128       31.9086   -2.5957   -7.9388 H         1 UNK         0.0769 
    129 H129       30.5856   -1.9471   -8.8966 H         1 UNK         0.0769 
    130 H130       34.4020   -1.4556   -8.0733 H         1 UNK         0.2981 
    131 H131       36.1313   -1.4155   -6.7564 H         1 UNK         0.0541 
    132 H132       36.3612    2.3905   -7.5994 H         1 UNK         0.3459 
    133 H133       35.0932    1.3238   -8.1474 H         1 UNK         0.3459 
    134 H134       34.5207   -0.2555   -4.4415 H         1 UNK         0.0612 
    135 H135       36.0653   -1.0463   -4.3392 H         1 UNK         0.0612 
    136 H136       32.3752   -1.3360   -4.2772 H         1 UNK         0.0624 
    137 H137       33.1369   -1.8018   -2.7746 H         1 UNK         0.0624 
@<TRIPOS>BOND
     1    1    2 1    
     2    1   72 1    
     3    1   73 1    
     4    1   74 1    
     5    2    3 2    
     6    2    4 am   BACKBONE|DICT|INTERRES
     7    4    5 1    
     8    4   75 1    
     9    5    6 1    
    10    5   35 1    
    11    5   76 1    
    12    6    7 1    
    13    6   77 1    
    14    6   78 1    
    15    7    8 1    
    16    8    9 1    
    17    8   79 1    
    18    8   80 1    
    19    9   10 ar   
    20    9   14 ar   
    21   10   11 ar   
    22   10   81 1    
    23   11   12 ar   
    24   11   71 1    
    25   12   13 ar   
    26   12   82 1    
    27   13   14 ar   
    28   13   15 1    
    29   14   83 1    
    30   15   16 1    
    31   15   84 1    
    32   15   85 1    
    33   16   17 1    
    34   17   18 1    
    35   17   86 1    
    36   17   87 1    
    37   18   19 1    
    38   18   37 1    
    39   18   88 1    
    40   19   20 am   BACKBONE|DICT|INTERRES
    41   19   89 1    
    42   20   21 2    
    43   20   22 1    
    44   22   23 1    
    45   22   24 1    
    46   22   90 1    
    47   23   91 1    
    48   23   92 1    
    49   23   93 1    
    50   24   25 am   BACKBONE|DICT|INTERRES
    51   24   94 1    
    52   25   26 2    
    53   25   27 1    
    54   27   28 1    
    55   27   29 1    
    56   27   95 1    
    57   28   96 1    
    58   28   97 1    
    59   28   98 1    
    60   29   30 am   BACKBONE|DICT|INTERRES
    61   29   99 1    
    62   30   31 2    
    63   30   32 1    
    64   32   33 1    
    65   32   34 1    
    66   32  100 1    
    67   33  101 1    
    68   33  102 1    
    69   33  103 1    
    70   34   35 am   BACKBONE|DICT|INTERRES
    71   34  104 1    
    72   35   36 2    
    73   37   38 2    
    74   37   39 am   BACKBONE|DICT|INTERRES
    75   39   40 1    
    76   39  105 1    
    77   40   41 1    
    78   40   42 1    
    79   40  106 1    
    80   41  107 1    
    81   41  108 1    
    82   41  109 1    
    83   42   43 2    
    84   42   44 am   BACKBONE|DICT|INTERRES
    85   44   45 1    
    86   44  110 1    
    87   45   46 1    
    88   45   47 1    
    89   45  111 1    
    90   46  112 1    
    91   46  113 1    
    92   46  114 1    
    93   47   48 2    
    94   47   49 am   BACKBONE|DICT|INTERRES
    95   49   50 1    
    96   49  115 1    
    97   50   51 1    
    98   50   52 1    
    99   50  116 1    
   100   51  117 1    
   101   51  118 1    
   102   51  119 1    
   103   52   53 2    
   104   52   54 am   BACKBONE|DICT|INTERRES
   105   54   55 1    
   106   54  120 1    
   107   55   56 1    
   108   55   57 1    
   109   55  121 1    
   110   56  122 1    
   111   56  123 1    
   112   56  124 1    
   113   57   58 2    
   114   57   59 am   BACKBONE|DICT|INTERRES
   115   59   60 1    
   116   59  125 1    
   117   60   61 1    
   118   60   62 1    
   119   60  126 1    
   120   61  127 1    
   121   61  128 1    
   122   61  129 1    
   123   62   63 2    
   124   62   64 am   BACKBONE|DICT|INTERRES
   125   64   65 1    
   126   64  130 1    
   127   65   66 1    
   128   65   69 1    
   129   65  131 1    
   130   66   67 am   BACKBONE|DICT|INTERRES
   131   66   68 2    
   132   67  132 1    
   133   67  133 1    
   134   69   70 1    
   135   69  134 1    
   136   69  135 1    
   137   70   71 1    
   138   71  136 1    
   139   71  137 1    
@<TRIPOS>SUBSTRUCTURE
     1 UNK         1 GROUP             0       ****    0 ROOT    
