@<TRIPOS>MOLECULE
3R137
137   139    1
SMALL
USER_CHARGES


@<TRIPOS>ATOM
      1 CA         25.7699   -4.3006   -3.3417 C.3       0 UNK        -0.2020 
      2 C          26.3817   -2.9436   -3.0351 C.2       0 UNK         0.4855 
      3 O          26.1676   -1.9962   -3.7944 O.2       0 UNK        -0.5197 
      4 N          27.1314   -2.8369   -1.9276 N.am      1 UNK        -0.4892 
      5 CA         27.8858   -1.6532   -1.4671 C.3       1 UNK         0.0835 
      6 C6         29.0132   -1.2388   -2.4644 C.3       12 UNK        -0.0855 
      7 S7         30.6626   -1.1172   -1.6928 S.3       12 UNK        -0.2931 
      8 C8         31.2061   -2.8583   -1.6005 C.3       12 UNK         0.0378 
      9 C9         31.3248   -3.5251   -2.9659 C.ar      12 UNK        -0.0802 
     10 C10        32.4671   -3.3461   -3.7541 C.ar      12 UNK        -0.0944 
     11 C11        32.5779   -3.9673   -5.0051 C.ar      12 UNK        -0.0787 
     12 C12        31.5294   -4.7786   -5.4562 C.ar      12 UNK        -0.0862 
     13 C13        30.3677   -4.9301   -4.6964 C.ar      12 UNK        -0.0733 
     14 C14        30.2842   -4.3281   -3.4394 C.ar      12 UNK        -0.0832 
     15 C15        29.1649   -5.6633   -5.2746 C.3       12 UNK         0.0240 
     16 S16        28.4012   -4.7419   -6.6591 S.3       12 UNK        -0.2522 
     17 C17        28.5584   -3.0089   -6.1044 C.3       12 UNK        -0.0967 
     18 CA         27.7005   -2.0220   -6.9173 C.3       5 UNK         0.0660 
     19 N          26.2632   -2.2786   -6.8020 N.am      5 UNK        -0.4015 
     20 C          25.3913   -2.0203   -7.7843 C.2       4 UNK         0.4946 
     21 O          25.7164   -1.5773   -8.8863 O.2       4 UNK        -0.5353 
     22 CA         23.9030   -2.2921   -7.5054 C.3       4 UNK         0.0277 
     23 CB         23.5470   -3.7369   -7.8919 C.3       4 UNK        -0.1981 
     24 N          23.4585   -2.0368   -6.1305 N.am      4 UNK        -0.4209 
     25 C          23.5440   -0.8656   -5.4839 C.2       3 UNK         0.4942 
     26 O          24.1398    0.1144   -5.9309 O.2       3 UNK        -0.5208 
     27 CA         22.8330   -0.7530   -4.1253 C.3       3 UNK         0.0250 
     28 CB         22.0143   -1.9999   -3.7206 C.3       3 UNK        -0.1990 
     29 N          23.8068   -0.4374   -3.0820 N.am      3 UNK        -0.4232 
     30 C          23.5424    0.2746   -1.9754 C.2       2 UNK         0.4993 
     31 O          22.4446    0.7868   -1.7497 O.2       2 UNK        -0.5286 
     32 CA         24.6673    0.4253   -0.9313 C.3       2 UNK         0.0209 
     33 CB         24.1335    0.4134    0.5143 C.3       2 UNK        -0.1931 
     34 N          25.6728   -0.6266   -1.0836 N.am      2 UNK        -0.4546 
     35 C          26.9990   -0.4509   -1.0550 C.2       1 UNK         0.5154 
     36 O          27.5284    0.6141   -0.7345 O.2       1 UNK        -0.5181 
     37 C          28.0347   -0.5656   -6.5463 C.2       5 UNK         0.5014 
     38 O          28.9588   -0.0039   -7.1336 O.2       5 UNK        -0.5248 
     39 N          27.2725    0.0542   -5.6313 N.am      6 UNK        -0.4434 
     40 CA         27.3612    1.4897   -5.3282 C.3       6 UNK         0.0363 
     41 CB         26.4832    1.8437   -4.1209 C.3       6 UNK        -0.1936 
     42 C          26.9875    2.3651   -6.5359 C.2       6 UNK         0.5081 
     43 O          27.6330    3.3863   -6.7674 O.2       6 UNK        -0.5248 
     44 N          26.0105    1.9093   -7.3328 N.am      7 UNK        -0.4718 
     45 CA         25.6511    2.4851   -8.6340 C.3       7 UNK         0.0273 
     46 CB         24.3626    1.8197   -9.1422 C.3       7 UNK        -0.1935 
     47 C          26.7736    2.3843   -9.6896 C.2       7 UNK         0.5018 
     48 O          26.7855    3.1806  -10.6283 O.2       7 UNK        -0.5186 
     49 N          27.7107    1.4447   -9.4992 N.am      8 UNK        -0.4240 
     50 CA         28.9475    1.2908  -10.2696 C.3       8 UNK         0.0235 
     51 CB         29.1650   -0.2042  -10.5693 C.3       8 UNK        -0.2000 
     52 C          30.1583    1.9058   -9.5349 C.2       8 UNK         0.4941 
     53 O          31.2959    1.5353   -9.8312 O.2       8 UNK        -0.5273 
     54 N          29.9042    2.8147   -8.5790 N.am      9 UNK        -0.4262 
     55 CA         30.8727    3.5652   -7.7707 C.3       9 UNK         0.0264 
     56 CB         31.6912    4.5268   -8.6597 C.3       9 UNK        -0.1955 
     57 C          31.7621    2.6854   -6.8691 C.2       9 UNK         0.5031 
     58 O          32.8901    3.0827   -6.5716 O.2       9 UNK        -0.5390 
     59 N          31.2431    1.5199   -6.4474 N.am      10 UNK        -0.4204 
     60 CA         31.9273    0.4724   -5.6795 C.3       10 UNK         0.0237 
     61 CB         32.2896    0.9587   -4.2605 C.3       10 UNK        -0.1985 
     62 C          33.1255   -0.0944   -6.4614 C.2       10 UNK         0.4970 
     63 O          34.2521   -0.0918   -5.9612 O.2       10 UNK        -0.4914 
     64 N          32.8404   -0.5492   -7.6889 N.am      11 UNK        -0.4285 
     65 CA         33.8086   -1.0582   -8.6737 C.3       11 UNK         0.1007 
     66 C          34.7157    0.0672   -9.2506 C.2       11 UNK         0.5703 
     67 N          34.1496    1.2083   -9.6238 N.am      11 UNK        -0.7361 
     68 O          35.9292   -0.0858   -9.3757 O.2       11 UNK        -0.4986 
     69 C69        34.5993   -2.3132   -8.1942 C.3       12 UNK        -0.0947 
     70 S70        33.5043   -3.6668   -7.6482 S.3       12 UNK        -0.2240 
     71 C71        33.8329   -3.7481   -5.8494 C.3       12 UNK         0.0194 
     72 H72        26.0416   -4.6157   -4.3487 H         1 UNK         0.0906 
     73 H73        26.1093   -5.0675   -2.6459 H         1 UNK         0.0906 
     74 H74        24.6839   -4.2455   -3.2835 H         1 UNK         0.0906 
     75 H75        27.2182   -3.6453   -1.3257 H         1 UNK         0.3140 
     76 H76        28.3509   -1.9725   -0.5331 H         1 UNK         0.1085 
     77 H77        29.0885   -1.9344   -3.2933 H         1 UNK         0.0836 
     78 H78        28.7987   -0.2834   -2.9475 H         1 UNK         0.0836 
     79 H79        30.5166   -3.4147   -0.9638 H         1 UNK         0.0731 
     80 H80        32.1731   -2.8945   -1.0967 H         1 UNK         0.0731 
     81 H81        33.2691   -2.7171   -3.3918 H         1 UNK         0.1312 
     82 H82        31.5864   -5.2544   -6.4253 H         1 UNK         0.1406 
     83 H83        29.3895   -4.4489   -2.8448 H         1 UNK         0.1631 
     84 H84        28.4096   -5.8306   -4.5054 H         1 UNK         0.0717 
     85 H85        29.4698   -6.6501   -5.6256 H         1 UNK         0.0717 
     86 H86        29.6124   -2.7303   -6.1749 H         1 UNK         0.0934 
     87 H87        28.2969   -2.9621   -5.0524 H         1 UNK         0.0934 
     88 H88        27.9933   -2.1452   -7.9626 H         1 UNK         0.0739 
     89 H89        25.9244   -2.5915   -5.9021 H         1 UNK         0.3093 
     90 H90        23.3340   -1.6198   -8.1512 H         1 UNK         0.0818 
     91 H91        22.4736   -3.9150   -7.8240 H         1 UNK         0.0819 
     92 H92        23.8427   -3.9504   -8.9203 H         1 UNK         0.0819 
     93 H93        24.0509   -4.4623   -7.2516 H         1 UNK         0.0819 
     94 H94        22.9544   -2.7856   -5.6785 H         1 UNK         0.3041 
     95 H95        22.1411    0.0856   -4.2291 H         1 UNK         0.0784 
     96 H96        21.2668   -2.2496   -4.4750 H         1 UNK         0.0793 
     97 H97        22.6471   -2.8738   -3.5655 H         1 UNK         0.0793 
     98 H98        21.4710   -1.8236   -2.7918 H         1 UNK         0.0793 
     99 H99        24.7456   -0.7894   -3.2462 H         1 UNK         0.3024 
    100 H100       25.1221    1.4003   -1.1220 H         1 UNK         0.1171 
    101 H101       24.9413    0.5432    1.2348 H         1 UNK         0.0786 
    102 H102       23.6241   -0.5226    0.7460 H         1 UNK         0.0786 
    103 H103       23.4230    1.2242    0.6803 H         1 UNK         0.0786 
    104 H104       25.3286   -1.5425   -1.3356 H         1 UNK         0.2977 
    105 H105       26.5510   -0.4774   -5.1577 H         1 UNK         0.3127 
    106 H106       28.3987    1.7091   -5.0668 H         1 UNK         0.0770 
    107 H107       25.4245    1.6818   -4.3196 H         1 UNK         0.0814 
    108 H108       26.6034    2.8933   -3.8496 H         1 UNK         0.0814 
    109 H109       26.7588    1.2551   -3.2512 H         1 UNK         0.0814 
    110 H110       25.4742    1.1047   -7.0179 H         1 UNK         0.2983 
    111 H111       25.4491    3.5472   -8.4797 H         1 UNK         0.0947 
    112 H112       24.0342    2.2703  -10.0797 H         1 UNK         0.0806 
    113 H113       23.5486    1.9310   -8.4254 H         1 UNK         0.0806 
    114 H114       24.5036    0.7545   -9.3250 H         1 UNK         0.0806 
    115 H115       27.6327    0.8531   -8.6819 H         1 UNK         0.3000 
    116 H116       28.8568    1.8150  -11.2229 H         1 UNK         0.0850 
    117 H117       30.0185   -0.3508  -11.2324 H         1 UNK         0.0810 
    118 H118       28.2955   -0.6408  -11.0612 H         1 UNK         0.0810 
    119 H119       29.3574   -0.7763   -9.6617 H         1 UNK         0.0810 
    120 H120       28.9350    3.0083   -8.3515 H         1 UNK         0.3040 
    121 H121       30.2801    4.1775   -7.0896 H         1 UNK         0.0766 
    122 H122       32.3001    5.1991   -8.0542 H         1 UNK         0.0812 
    123 H123       31.0414    5.1487   -9.2753 H         1 UNK         0.0812 
    124 H124       32.3672    3.9868   -9.3233 H         1 UNK         0.0812 
    125 H125       30.3208    1.2542   -6.7870 H         1 UNK         0.3205 
    126 H126       31.2174   -0.3488   -5.5668 H         1 UNK         0.0754 
    127 H127       32.7160    0.1455   -3.6720 H         1 UNK         0.0769 
    128 H128       31.4078    1.3150   -3.7281 H         1 UNK         0.0769 
    129 H129       33.0231    1.7650   -4.2761 H         1 UNK         0.0769 
    130 H130       31.8926   -0.4581   -8.0245 H         1 UNK         0.2981 
    131 H131       33.2065   -1.3824   -9.5233 H         1 UNK         0.0541 
    132 H132       33.1397    1.3272   -9.5851 H         1 UNK         0.3459 
    133 H133       34.7265    1.9440   -9.9974 H         1 UNK         0.3459 
    134 H134       35.3071   -2.0543   -7.4062 H         1 UNK         0.0612 
    135 H135       35.2038   -2.7040   -9.0143 H         1 UNK         0.0612 
    136 H136       34.3267   -2.8310   -5.5274 H         1 UNK         0.0624 
    137 H137       34.5353   -4.5598   -5.6580 H         1 UNK         0.0624 
@<TRIPOS>BOND
     1    1    2 1    
     2    1   72 1    
     3    1   73 1    
     4    1   74 1    
     5    2    3 2    
     6    2    4 am   BACKBONE|DICT|INTERRES
     7    4    5 1    
     8    4   75 1    
     9    5    6 1    
    10    5   35 1    
    11    5   76 1    
    12    6    7 1    
    13    6   77 1    
    14    6   78 1    
    15    7    8 1    
    16    8    9 1    
    17    8   79 1    
    18    8   80 1    
    19    9   10 ar   
    20    9   14 ar   
    21   10   11 ar   
    22   10   81 1    
    23   11   12 ar   
    24   11   71 1    
    25   12   13 ar   
    26   12   82 1    
    27   13   14 ar   
    28   13   15 1    
    29   14   83 1    
    30   15   16 1    
    31   15   84 1    
    32   15   85 1    
    33   16   17 1    
    34   17   18 1    
    35   17   86 1    
    36   17   87 1    
    37   18   19 1    
    38   18   37 1    
    39   18   88 1    
    40   19   20 am   BACKBONE|DICT|INTERRES
    41   19   89 1    
    42   20   21 2    
    43   20   22 1    
    44   22   23 1    
    45   22   24 1    
    46   22   90 1    
    47   23   91 1    
    48   23   92 1    
    49   23   93 1    
    50   24   25 am   BACKBONE|DICT|INTERRES
    51   24   94 1    
    52   25   26 2    
    53   25   27 1    
    54   27   28 1    
    55   27   29 1    
    56   27   95 1    
    57   28   96 1    
    58   28   97 1    
    59   28   98 1    
    60   29   30 am   BACKBONE|DICT|INTERRES
    61   29   99 1    
    62   30   31 2    
    63   30   32 1    
    64   32   33 1    
    65   32   34 1    
    66   32  100 1    
    67   33  101 1    
    68   33  102 1    
    69   33  103 1    
    70   34   35 am   BACKBONE|DICT|INTERRES
    71   34  104 1    
    72   35   36 2    
    73   37   38 2    
    74   37   39 am   BACKBONE|DICT|INTERRES
    75   39   40 1    
    76   39  105 1    
    77   40   41 1    
    78   40   42 1    
    79   40  106 1    
    80   41  107 1    
    81   41  108 1    
    82   41  109 1    
    83   42   43 2    
    84   42   44 am   BACKBONE|DICT|INTERRES
    85   44   45 1    
    86   44  110 1    
    87   45   46 1    
    88   45   47 1    
    89   45  111 1    
    90   46  112 1    
    91   46  113 1    
    92   46  114 1    
    93   47   48 2    
    94   47   49 am   BACKBONE|DICT|INTERRES
    95   49   50 1    
    96   49  115 1    
    97   50   51 1    
    98   50   52 1    
    99   50  116 1    
   100   51  117 1    
   101   51  118 1    
   102   51  119 1    
   103   52   53 2    
   104   52   54 am   BACKBONE|DICT|INTERRES
   105   54   55 1    
   106   54  120 1    
   107   55   56 1    
   108   55   57 1    
   109   55  121 1    
   110   56  122 1    
   111   56  123 1    
   112   56  124 1    
   113   57   58 2    
   114   57   59 am   BACKBONE|DICT|INTERRES
   115   59   60 1    
   116   59  125 1    
   117   60   61 1    
   118   60   62 1    
   119   60  126 1    
   120   61  127 1    
   121   61  128 1    
   122   61  129 1    
   123   62   63 2    
   124   62   64 am   BACKBONE|DICT|INTERRES
   125   64   65 1    
   126   64  130 1    
   127   65   66 1    
   128   65   69 1    
   129   65  131 1    
   130   66   67 am   BACKBONE|DICT|INTERRES
   131   66   68 2    
   132   67  132 1    
   133   67  133 1    
   134   69   70 1    
   135   69  134 1    
   136   69  135 1    
   137   70   71 1    
   138   71  136 1    
   139   71  137 1    
@<TRIPOS>SUBSTRUCTURE
     1 UNK         1 GROUP             0       ****    0 ROOT    
