@<TRIPOS>MOLECULE
3R137
137   139    1
SMALL
USER_CHARGES


@<TRIPOS>ATOM
      1 CA         26.1107   -5.5740   -2.6190 C.3       0 UNK        -0.2020 
      2 C          26.5178   -4.7150   -1.4313 C.2       0 UNK         0.4855 
      3 O          25.7414   -4.5841   -0.4849 O.2       0 UNK        -0.5197 
      4 N          27.7279   -4.1409   -1.4679 N.am      1 UNK        -0.4892 
      5 CA         28.2333   -3.2004   -0.4635 C.3       1 UNK         0.0835 
      6 C6         29.7810   -3.1058   -0.4702 C.3       12 UNK        -0.0855 
      7 S7         30.6252   -4.5934    0.1779 S.3       12 UNK        -0.2931 
      8 C8         30.6875   -5.7761   -1.2190 C.3       12 UNK         0.0378 
      9 C9         30.9461   -5.1402   -2.5808 C.ar      12 UNK        -0.0802 
     10 C10        32.0395   -4.2894   -2.7844 C.ar      12 UNK        -0.0944 
     11 C11        32.2224   -3.6591   -4.0188 C.ar      12 UNK        -0.0787 
     12 C12        31.3311   -3.9134   -5.0616 C.ar      12 UNK        -0.0862 
     13 C13        30.2403   -4.7634   -4.8740 C.ar      12 UNK        -0.0733 
     14 C14        30.0649   -5.3905   -3.6382 C.ar      12 UNK        -0.0832 
     15 C15        29.2297   -4.9687   -5.9927 C.3       12 UNK         0.0240 
     16 S16        27.6996   -4.0285   -5.6824 S.3       12 UNK        -0.2522 
     17 C17        28.2808   -2.2984   -5.7475 C.3       12 UNK        -0.0967 
     18 CA         27.5074   -1.4553   -6.7865 C.3       5 UNK         0.0660 
     19 N          26.0689   -1.4097   -6.5070 N.am      5 UNK        -0.4015 
     20 C          25.1411   -1.0358   -7.3994 C.2       4 UNK         0.4946 
     21 O          25.4056   -0.7008   -8.5532 O.2       4 UNK        -0.5353 
     22 CA         23.6793   -0.9727   -6.9194 C.3       4 UNK         0.0277 
     23 CB         22.9951   -2.3355   -7.1083 C.3       4 UNK        -0.1981 
     24 N          23.5354   -0.5415   -5.5259 N.am      4 UNK        -0.4209 
     25 C          23.9769    0.6241   -5.0337 C.2       3 UNK         0.4942 
     26 O          24.5216    1.4889   -5.7212 O.2       3 UNK        -0.5208 
     27 CA         23.8728    0.8418   -3.5120 C.3       3 UNK         0.0250 
     28 CB         22.9370   -0.1563   -2.7913 C.3       3 UNK        -0.1990 
     29 N          25.2042    0.8410   -2.8895 N.am      3 UNK        -0.4232 
     30 C          26.1197   -0.1380   -2.9614 C.2       2 UNK         0.4993 
     31 O          25.9406   -1.1950   -3.5719 O.2       2 UNK        -0.5286 
     32 CA         27.4916    0.1133   -2.3068 C.3       2 UNK         0.0209 
     33 CB         27.5160    1.2663   -1.2759 C.3       2 UNK        -0.1931 
     34 N          28.0401   -1.1296   -1.7522 N.am      2 UNK        -0.4546 
     35 C          27.5778   -1.8252   -0.7008 C.2       1 UNK         0.5154 
     36 O          26.6740   -1.4425    0.0440 O.2       1 UNK        -0.5181 
     37 C          28.1157   -0.0425   -6.8981 C.2       5 UNK         0.5014 
     38 O          29.0692    0.1417   -7.6567 O.2       5 UNK        -0.5248 
     39 N          27.5522    0.9315   -6.1667 N.am      6 UNK        -0.4434 
     40 CA         27.9356    2.3413   -6.2538 C.3       6 UNK         0.0363 
     41 CB         27.5053    3.0949   -4.9856 C.3       6 UNK        -0.1936 
     42 C          27.3563    2.9963   -7.5154 C.2       6 UNK         0.5081 
     43 O          28.0636    3.7571   -8.1732 O.2       6 UNK        -0.5248 
     44 N          26.1100    2.6472   -7.8694 N.am      7 UNK        -0.4718 
     45 CA         25.4543    3.0500   -9.1191 C.3       7 UNK         0.0273 
     46 CB         23.9822    2.6103   -9.0963 C.3       7 UNK        -0.1935 
     47 C          26.1713    2.5068  -10.3692 C.2       7 UNK         0.5018 
     48 O          26.3115    3.2354  -11.3517 O.2       7 UNK        -0.5186 
     49 N          26.6550    1.2585  -10.2902 N.am      8 UNK        -0.4240 
     50 CA         27.5150    0.6227  -11.2937 C.3       8 UNK         0.0235 
     51 CB         27.5134   -0.8973  -11.0593 C.3       8 UNK        -0.2000 
     52 C          28.9629    1.1546  -11.3027 C.2       8 UNK         0.4941 
     53 O          29.6993    0.8443  -12.2400 O.2       8 UNK        -0.5273 
     54 N          29.3486    1.9200  -10.2696 N.am      9 UNK        -0.4262 
     55 CA         30.6741    2.4965  -10.0197 C.3       9 UNK         0.0264 
     56 CB         31.0177    3.5651  -11.0794 C.3       9 UNK        -0.1955 
     57 C          31.7772    1.4337   -9.8490 C.2       9 UNK         0.5031 
     58 O          32.9036    1.6383  -10.3070 O.2       9 UNK        -0.5390 
     59 N          31.4422    0.3199   -9.1821 N.am      10 UNK        -0.4204 
     60 CA         32.3769   -0.7635   -8.8648 C.3       10 UNK         0.0237 
     61 CB         31.5851   -2.0372   -8.5334 C.3       10 UNK        -0.1985 
     62 C          33.3346   -0.3924   -7.7183 C.2       10 UNK         0.4970 
     63 O          34.4850   -0.8309   -7.7274 O.2       10 UNK        -0.4914 
     64 N          32.8515    0.4265   -6.7791 N.am      11 UNK        -0.4285 
     65 CA         33.6019    1.0416   -5.6797 C.3       11 UNK         0.1007 
     66 C          32.8108    2.2426   -5.0937 C.2       11 UNK         0.5703 
     67 N          33.4248    3.0276   -4.2189 N.am      11 UNK        -0.7361 
     68 O          31.6506    2.4779   -5.4305 O.2       11 UNK        -0.4986 
     69 C69        34.0886    0.0306   -4.5990 C.3       12 UNK        -0.0947 
     70 S70        32.7547   -0.9754   -3.8641 S.3       12 UNK        -0.2240 
     71 C71        33.3440   -2.6579   -4.2260 C.3       12 UNK         0.0194 
     72 H72        25.7726   -6.5524   -2.2787 H         1 UNK         0.0906 
     73 H73        25.2922   -5.0983   -3.1591 H         1 UNK         0.0906 
     74 H74        26.9306   -5.7263   -3.3179 H         1 UNK         0.0906 
     75 H75        28.3162   -4.2721   -2.2777 H         1 UNK         0.3140 
     76 H76        27.9214   -3.5402    0.5271 H         1 UNK         0.1085 
     77 H77        30.1615   -2.8554   -1.4599 H         1 UNK         0.0836 
     78 H78        30.0990   -2.2819    0.1723 H         1 UNK         0.0836 
     79 H79        29.7486   -6.3319   -1.2283 H         1 UNK         0.0731 
     80 H80        31.4694   -6.5101   -1.0201 H         1 UNK         0.0731 
     81 H81        32.7190   -4.0831   -1.9685 H         1 UNK         0.1312 
     82 H82        31.4721   -3.4193   -6.0109 H         1 UNK         0.1406 
     83 H83        29.2267   -6.0586   -3.4982 H         1 UNK         0.1631 
     84 H84        28.9853   -6.0287   -6.0741 H         1 UNK         0.0717 
     85 H85        29.6469   -4.6745   -6.9573 H         1 UNK         0.0717 
     86 H86        28.1911   -1.8713   -4.7486 H         1 UNK         0.0934 
     87 H87        29.3444   -2.2820   -5.9804 H         1 UNK         0.0934 
     88 H88        27.6395   -1.9318   -7.7603 H         1 UNK         0.0739 
     89 H89        25.7915   -1.6309   -5.5551 H         1 UNK         0.3093 
     90 H90        23.1613   -0.2412   -7.5423 H         1 UNK         0.0818 
     91 H91        21.9345   -2.2859   -6.8611 H         1 UNK         0.0819 
     92 H92        23.0686   -2.6674   -8.1451 H         1 UNK         0.0819 
     93 H93        23.4508   -3.1072   -6.4864 H         1 UNK         0.0819 
     94 H94        23.1359   -1.2076   -4.8807 H         1 UNK         0.3041 
     95 H95        23.4599    1.8425   -3.3759 H         1 UNK         0.0784 
     96 H96        21.9361   -0.1445   -3.2251 H         1 UNK         0.0793 
     97 H97        23.3079   -1.1812   -2.8308 H         1 UNK         0.0793 
     98 H98        22.8287    0.1072   -1.7390 H         1 UNK         0.0793 
     99 H99        25.4499    1.6834   -2.3888 H         1 UNK         0.3024 
    100 H100       28.1606    0.3932   -3.1221 H         1 UNK         0.1171 
    101 H101       28.4961    1.3495   -0.8059 H         1 UNK         0.0786 
    102 H102       27.3119    2.2282   -1.7470 H         1 UNK         0.0786 
    103 H103       26.7812    1.1270   -0.4822 H         1 UNK         0.0786 
    104 H104       28.7636   -1.5607   -2.3084 H         1 UNK         0.2977 
    105 H105       26.7141    0.7209   -5.6430 H         1 UNK         0.3127 
    106 H106       29.0243    2.4017   -6.3215 H         1 UNK         0.0770 
    107 H107       26.4289    3.0484   -4.8220 H         1 UNK         0.0814 
    108 H108       27.7767    4.1492   -5.0534 H         1 UNK         0.0814 
    109 H109       28.0026    2.6952   -4.1031 H         1 UNK         0.0814 
    110 H110       25.5674    2.0719   -7.2301 H         1 UNK         0.2983 
    111 H111       25.4843    4.1406   -9.1699 H         1 UNK         0.0947 
    112 H112       23.4572    2.9641   -9.9846 H         1 UNK         0.0806 
    113 H113       23.4601    3.0126   -8.2279 H         1 UNK         0.0806 
    114 H114       23.8849    1.5251   -9.0725 H         1 UNK         0.0806 
    115 H115       26.3994    0.6903   -9.4865 H         1 UNK         0.3000 
    116 H116       27.0906    0.8184  -12.2806 H         1 UNK         0.0850 
    117 H117       28.0998   -1.4130  -11.8209 H         1 UNK         0.0810 
    118 H118       26.5030   -1.3047  -11.0981 H         1 UNK         0.0810 
    119 H119       27.9414   -1.1534  -10.0896 H         1 UNK         0.0810 
    120 H120       28.6590    2.1259   -9.5579 H         1 UNK         0.3040 
    121 H121       30.6024    3.0044   -9.0568 H         1 UNK         0.0766 
    122 H122       31.1632    3.1252  -12.0664 H         1 UNK         0.0812 
    123 H123       31.9366    4.0922  -10.8199 H         1 UNK         0.0812 
    124 H124       30.2280    4.3124  -11.1572 H         1 UNK         0.0812 
    125 H125       30.5036    0.2470   -8.7894 H         1 UNK         0.3205 
    126 H126       32.9843   -0.9651   -9.7499 H         1 UNK         0.0754 
    127 H127       32.2556   -2.8657   -8.3013 H         1 UNK         0.0769 
    128 H128       30.9643   -2.3468   -9.3744 H         1 UNK         0.0769 
    129 H129       30.9317   -1.8867   -7.6755 H         1 UNK         0.0769 
    130 H130       31.8957    0.7514   -6.8472 H         1 UNK         0.2981 
    131 H131       34.4885    1.4860   -6.1356 H         1 UNK         0.0541 
    132 H132       34.3763    2.8531   -3.9361 H         1 UNK         0.3459 
    133 H133       32.9234    3.8121   -3.8332 H         1 UNK         0.3459 
    134 H134       34.6070    0.5476   -3.7904 H         1 UNK         0.0612 
    135 H135       34.8390   -0.6294   -5.0353 H         1 UNK         0.0612 
    136 H136       33.6996   -2.7107   -5.2566 H         1 UNK         0.0624 
    137 H137       34.1954   -2.8929   -3.5857 H         1 UNK         0.0624 
@<TRIPOS>BOND
     1    1    2 1    
     2    1   72 1    
     3    1   73 1    
     4    1   74 1    
     5    2    3 2    
     6    2    4 am   BACKBONE|DICT|INTERRES
     7    4    5 1    
     8    4   75 1    
     9    5    6 1    
    10    5   35 1    
    11    5   76 1    
    12    6    7 1    
    13    6   77 1    
    14    6   78 1    
    15    7    8 1    
    16    8    9 1    
    17    8   79 1    
    18    8   80 1    
    19    9   10 ar   
    20    9   14 ar   
    21   10   11 ar   
    22   10   81 1    
    23   11   12 ar   
    24   11   71 1    
    25   12   13 ar   
    26   12   82 1    
    27   13   14 ar   
    28   13   15 1    
    29   14   83 1    
    30   15   16 1    
    31   15   84 1    
    32   15   85 1    
    33   16   17 1    
    34   17   18 1    
    35   17   86 1    
    36   17   87 1    
    37   18   19 1    
    38   18   37 1    
    39   18   88 1    
    40   19   20 am   BACKBONE|DICT|INTERRES
    41   19   89 1    
    42   20   21 2    
    43   20   22 1    
    44   22   23 1    
    45   22   24 1    
    46   22   90 1    
    47   23   91 1    
    48   23   92 1    
    49   23   93 1    
    50   24   25 am   BACKBONE|DICT|INTERRES
    51   24   94 1    
    52   25   26 2    
    53   25   27 1    
    54   27   28 1    
    55   27   29 1    
    56   27   95 1    
    57   28   96 1    
    58   28   97 1    
    59   28   98 1    
    60   29   30 am   BACKBONE|DICT|INTERRES
    61   29   99 1    
    62   30   31 2    
    63   30   32 1    
    64   32   33 1    
    65   32   34 1    
    66   32  100 1    
    67   33  101 1    
    68   33  102 1    
    69   33  103 1    
    70   34   35 am   BACKBONE|DICT|INTERRES
    71   34  104 1    
    72   35   36 2    
    73   37   38 2    
    74   37   39 am   BACKBONE|DICT|INTERRES
    75   39   40 1    
    76   39  105 1    
    77   40   41 1    
    78   40   42 1    
    79   40  106 1    
    80   41  107 1    
    81   41  108 1    
    82   41  109 1    
    83   42   43 2    
    84   42   44 am   BACKBONE|DICT|INTERRES
    85   44   45 1    
    86   44  110 1    
    87   45   46 1    
    88   45   47 1    
    89   45  111 1    
    90   46  112 1    
    91   46  113 1    
    92   46  114 1    
    93   47   48 2    
    94   47   49 am   BACKBONE|DICT|INTERRES
    95   49   50 1    
    96   49  115 1    
    97   50   51 1    
    98   50   52 1    
    99   50  116 1    
   100   51  117 1    
   101   51  118 1    
   102   51  119 1    
   103   52   53 2    
   104   52   54 am   BACKBONE|DICT|INTERRES
   105   54   55 1    
   106   54  120 1    
   107   55   56 1    
   108   55   57 1    
   109   55  121 1    
   110   56  122 1    
   111   56  123 1    
   112   56  124 1    
   113   57   58 2    
   114   57   59 am   BACKBONE|DICT|INTERRES
   115   59   60 1    
   116   59  125 1    
   117   60   61 1    
   118   60   62 1    
   119   60  126 1    
   120   61  127 1    
   121   61  128 1    
   122   61  129 1    
   123   62   63 2    
   124   62   64 am   BACKBONE|DICT|INTERRES
   125   64   65 1    
   126   64  130 1    
   127   65   66 1    
   128   65   69 1    
   129   65  131 1    
   130   66   67 am   BACKBONE|DICT|INTERRES
   131   66   68 2    
   132   67  132 1    
   133   67  133 1    
   134   69   70 1    
   135   69  134 1    
   136   69  135 1    
   137   70   71 1    
   138   71  136 1    
   139   71  137 1    
@<TRIPOS>SUBSTRUCTURE
     1 UNK         1 GROUP             0       ****    0 ROOT    
