@<TRIPOS>MOLECULE
3R137
137   139    1
SMALL
USER_CHARGES


@<TRIPOS>ATOM
      1 CA         27.6868   -0.3834   -1.3963 C.3       0 UNK        -0.2020 
      2 C          27.8920   -0.8731    0.0356 C.2       0 UNK         0.4855 
      3 O          27.8810   -0.0598    0.9575 O.2       0 UNK        -0.5197 
      4 N          28.0947   -2.1752    0.2781 N.am      1 UNK        -0.4892 
      5 CA         28.0695   -3.2716   -0.6985 C.3       1 UNK         0.0835 
      6 C6         28.7804   -4.5449   -0.1659 C.3       12 UNK        -0.0855 
      7 S7         30.4732   -4.2345    0.4524 S.3       12 UNK        -0.2931 
      8 C8         31.4971   -4.5420   -1.0240 C.3       12 UNK         0.0378 
      9 C9         31.2091   -3.5320   -2.1245 C.ar      12 UNK        -0.0802 
     10 C10        31.5885   -2.1942   -1.9677 C.ar      12 UNK        -0.0944 
     11 C11        31.2798   -1.2480   -2.9499 C.ar      12 UNK        -0.0787 
     12 C12        30.5857   -1.6495   -4.0915 C.ar      12 UNK        -0.0862 
     13 C13        30.2271   -2.9865   -4.2712 C.ar      12 UNK        -0.0733 
     14 C14        30.5422   -3.9278   -3.2883 C.ar      12 UNK        -0.0832 
     15 C15        29.4901   -3.3964   -5.5296 C.3       12 UNK         0.0240 
     16 S16        27.7103   -3.0933   -5.3407 S.3       12 UNK        -0.2522 
     17 C17        27.2330   -2.8391   -7.0821 C.3       12 UNK        -0.0967 
     18 CA         26.8972   -1.3701   -7.4358 C.3       5 UNK         0.0660 
     19 N          25.5992   -0.9473   -6.8957 N.am      5 UNK        -0.4015 
     20 C          24.9797    0.1957   -7.2282 C.2       4 UNK         0.4946 
     21 O          25.4244    0.9819   -8.0658 O.2       4 UNK        -0.5353 
     22 CA         23.6775    0.5686   -6.5015 C.3       4 UNK         0.0277 
     23 CB         22.4751    0.3707   -7.4383 C.3       4 UNK        -0.1981 
     24 N          23.4236   -0.1344   -5.2411 N.am      4 UNK        -0.4209 
     25 C          24.2097   -0.1540   -4.1549 C.2       3 UNK         0.4942 
     26 O          25.3326    0.3528   -4.1067 O.2       3 UNK        -0.5208 
     27 CA         23.6454   -0.8676   -2.9099 C.3       3 UNK         0.0250 
     28 CB         22.1087   -1.0352   -2.9270 C.3       3 UNK        -0.1990 
     29 N          24.2831   -2.1622   -2.6534 N.am      3 UNK        -0.4232 
     30 C          24.4467   -3.1904   -3.4993 C.2       2 UNK         0.4993 
     31 O          24.1027   -3.1723   -4.6833 O.2       2 UNK        -0.5286 
     32 CA         25.1227   -4.4444   -2.9063 C.3       2 UNK         0.0209 
     33 CB         25.2765   -5.5865   -3.9292 C.3       2 UNK        -0.1931 
     34 N          26.4347   -4.1300   -2.3268 N.am      2 UNK        -0.4546 
     35 C          26.6202   -3.5971   -1.1123 C.2       1 UNK         0.5154 
     36 O          25.6887   -3.3483   -0.3417 O.2       1 UNK        -0.5181 
     37 C          28.0478   -0.3844   -7.1140 C.2       5 UNK         0.5014 
     38 O          29.0145   -0.3226   -7.8744 O.2       5 UNK        -0.5248 
     39 N          27.9060    0.4159   -6.0447 N.am      6 UNK        -0.4434 
     40 CA         28.7976    1.5340   -5.7204 C.3       6 UNK         0.0363 
     41 CB         28.4067    2.1142   -4.3543 C.3       6 UNK        -0.1936 
     42 C          28.8215    2.6407   -6.7921 C.2       6 UNK         0.5081 
     43 O          29.8199    3.3529   -6.8877 O.2       6 UNK        -0.5248 
     44 N          27.7481    2.7516   -7.5860 N.am      7 UNK        -0.4718 
     45 CA         27.6704    3.6134   -8.7616 C.3       7 UNK         0.0273 
     46 CB         26.3152    4.3410   -8.7805 C.3       7 UNK        -0.1935 
     47 C          27.8689    2.7842  -10.0375 C.2       7 UNK         0.5018 
     48 O          28.7461    3.1110  -10.8357 O.2       7 UNK        -0.5186 
     49 N          27.0710    1.7179  -10.2022 N.am      8 UNK        -0.4240 
     50 CA         26.9887    0.9112  -11.4256 C.3       8 UNK         0.0235 
     51 CB         25.7858   -0.0419  -11.3373 C.3       8 UNK        -0.2000 
     52 C          28.2731    0.1423  -11.7812 C.2       8 UNK         0.4941 
     53 O          28.5667   -0.0038  -12.9681 O.2       8 UNK        -0.5273 
     54 N          29.0214   -0.3104  -10.7666 N.am      9 UNK        -0.4262 
     55 CA         30.3440   -0.9276  -10.9104 C.3       9 UNK         0.0264 
     56 CB         30.3319   -2.3143  -10.2396 C.3       9 UNK        -0.1955 
     57 C          31.4462   -0.0266  -10.3220 C.2       9 UNK         0.5031 
     58 O          32.5807   -0.4845  -10.1738 O.2       9 UNK        -0.5390 
     59 N          31.0979    1.2237   -9.9737 N.am      10 UNK        -0.4204 
     60 CA         31.9494    2.2849   -9.4208 C.3       10 UNK         0.0237 
     61 CB         32.8893    2.8221  -10.5208 C.3       10 UNK        -0.1985 
     62 C          32.7163    1.9090   -8.1336 C.2       10 UNK         0.4970 
     63 O          33.7399    2.5334   -7.8481 O.2       10 UNK        -0.4914 
     64 N          32.2378    0.8947   -7.3942 N.am      11 UNK        -0.4285 
     65 CA         32.9435    0.2745   -6.2577 C.3       11 UNK         0.1007 
     66 C          34.2705   -0.4481   -6.6662 C.2       11 UNK         0.5703 
     67 N          34.4358   -0.8586   -7.9199 N.am      11 UNK        -0.7361 
     68 O          35.1592   -0.6661   -5.8471 O.2       11 UNK        -0.4986 
     69 C69        33.0682    1.2595   -5.0539 C.3       12 UNK        -0.0947 
     70 S70        33.3676    0.4857   -3.4247 S.3       12 UNK        -0.2240 
     71 C71        31.6923    0.2044   -2.7736 C.3       12 UNK         0.0194 
     72 H72        28.5336   -0.6497   -2.0272 H         1 UNK         0.0906 
     73 H73        26.7786   -0.7953   -1.8331 H         1 UNK         0.0906 
     74 H74        27.5912    0.7020   -1.4131 H         1 UNK         0.0906 
     75 H75        28.2289   -2.4687    1.2348 H         1 UNK         0.3140 
     76 H76        28.5955   -2.9363   -1.5915 H         1 UNK         0.1085 
     77 H77        28.2097   -4.9799    0.6573 H         1 UNK         0.0836 
     78 H78        28.8228   -5.3150   -0.9387 H         1 UNK         0.0836 
     79 H79        31.3347   -5.5632   -1.3727 H         1 UNK         0.0731 
     80 H80        32.5497   -4.4775   -0.7448 H         1 UNK         0.0731 
     81 H81        32.1114   -1.8881   -1.0717 H         1 UNK         0.1312 
     82 H82        30.3240   -0.9247   -4.8472 H         1 UNK         0.1406 
     83 H83        30.2522   -4.9614   -3.4218 H         1 UNK         0.1631 
     84 H84        29.6585   -4.4501   -5.7574 H         1 UNK         0.0717 
     85 H85        29.8853   -2.8293   -6.3743 H         1 UNK         0.0717 
     86 H86        28.0229   -3.2070   -7.7395 H         1 UNK         0.0934 
     87 H87        26.3720   -3.4764   -7.2913 H         1 UNK         0.0934 
     88 H88        26.7888   -1.3398   -8.5202 H         1 UNK         0.0739 
     89 H89        25.1853   -1.5404   -6.1869 H         1 UNK         0.3093 
     90 H90        23.7508    1.6314   -6.2626 H         1 UNK         0.0818 
     91 H91        21.5549    0.7470   -6.9909 H         1 UNK         0.0819 
     92 H92        22.6171    0.9080   -8.3775 H         1 UNK         0.0819 
     93 H93        22.3251   -0.6812   -7.6849 H         1 UNK         0.0819 
     94 H94        22.5450   -0.6282   -5.1792 H         1 UNK         0.3041 
     95 H95        23.8952   -0.2280   -2.0619 H         1 UNK         0.0784 
     96 H96        21.6069   -0.0825   -3.1035 H         1 UNK         0.0793 
     97 H97        21.7758   -1.7377   -3.6920 H         1 UNK         0.0793 
     98 H98        21.7495   -1.4076   -1.9674 H         1 UNK         0.0793 
     99 H99        24.6300   -2.3003   -1.7093 H         1 UNK         0.3024 
    100 H100       24.4635   -4.8097   -2.1149 H         1 UNK         0.1171 
    101 H101       25.7163   -6.4725   -3.4712 H         1 UNK         0.0786 
    102 H102       24.3063   -5.8804   -4.3319 H         1 UNK         0.0786 
    103 H103       25.9025   -5.3002   -4.7738 H         1 UNK         0.0786 
    104 H104       27.2281   -4.2565   -2.9403 H         1 UNK         0.2977 
    105 H105       27.0849    0.3037   -5.4589 H         1 UNK         0.3127 
    106 H106       29.8137    1.1446   -5.6490 H         1 UNK         0.0770 
    107 H107       27.3826    2.4899   -4.3533 H         1 UNK         0.0814 
    108 H108       28.4883    1.3622   -3.5717 H         1 UNK         0.0814 
    109 H109       29.0613    2.9419   -4.0775 H         1 UNK         0.0814 
    110 H110       26.9760    2.1067   -7.4557 H         1 UNK         0.2983 
    111 H111       28.4561    4.3720   -8.7318 H         1 UNK         0.0947 
    112 H112       26.2016    4.9812   -7.9056 H         1 UNK         0.0806 
    113 H113       25.4743    3.6466   -8.7946 H         1 UNK         0.0806 
    114 H114       26.2273    4.9786   -9.6612 H         1 UNK         0.0806 
    115 H115       26.3956    1.4999   -9.4699 H         1 UNK         0.3000 
    116 H116       26.7997    1.6047  -12.2480 H         1 UNK         0.0850 
    117 H117       25.6645   -0.6025  -12.2652 H         1 UNK         0.0810 
    118 H118       24.8581    0.5050  -11.1669 H         1 UNK         0.0810 
    119 H119       25.8970   -0.7672  -10.5330 H         1 UNK         0.0810 
    120 H120       28.7201   -0.1586   -9.8083 H         1 UNK         0.3040 
    121 H121       30.5894   -1.0677  -11.9648 H         1 UNK         0.0766 
    122 H122       30.1950   -2.2460   -9.1606 H         1 UNK         0.0812 
    123 H123       31.2723   -2.8391  -10.4125 H         1 UNK         0.0812 
    124 H124       29.5353   -2.9411  -10.6401 H         1 UNK         0.0812 
    125 H125       30.1473    1.5089  -10.1728 H         1 UNK         0.3205 
    126 H126       31.2755    3.0957   -9.1416 H         1 UNK         0.0754 
    127 H127       33.4316    3.7058  -10.1821 H         1 UNK         0.0769 
    128 H128       32.3311    3.1117  -11.4113 H         1 UNK         0.0769 
    129 H129       33.6294    2.0772  -10.8157 H         1 UNK         0.0769 
    130 H130       31.3961    0.4296   -7.7062 H         1 UNK         0.2981 
    131 H131       32.2918   -0.5378   -5.9449 H         1 UNK         0.0541 
    132 H132       33.7292   -0.6895   -8.6307 H         1 UNK         0.3459 
    133 H133       35.2904   -1.3288   -8.1704 H         1 UNK         0.3459 
    134 H134       32.1674    1.8697   -4.9754 H         1 UNK         0.0612 
    135 H135       33.8794    1.9664   -5.2339 H         1 UNK         0.0612 
    136 H136       30.9751    0.8712   -3.2526 H         1 UNK         0.0624 
    137 H137       31.6822    0.4619   -1.7135 H         1 UNK         0.0624 
@<TRIPOS>BOND
     1    1    2 1    
     2    1   72 1    
     3    1   73 1    
     4    1   74 1    
     5    2    3 2    
     6    2    4 am   BACKBONE|DICT|INTERRES
     7    4    5 1    
     8    4   75 1    
     9    5    6 1    
    10    5   35 1    
    11    5   76 1    
    12    6    7 1    
    13    6   77 1    
    14    6   78 1    
    15    7    8 1    
    16    8    9 1    
    17    8   79 1    
    18    8   80 1    
    19    9   10 ar   
    20    9   14 ar   
    21   10   11 ar   
    22   10   81 1    
    23   11   12 ar   
    24   11   71 1    
    25   12   13 ar   
    26   12   82 1    
    27   13   14 ar   
    28   13   15 1    
    29   14   83 1    
    30   15   16 1    
    31   15   84 1    
    32   15   85 1    
    33   16   17 1    
    34   17   18 1    
    35   17   86 1    
    36   17   87 1    
    37   18   19 1    
    38   18   37 1    
    39   18   88 1    
    40   19   20 am   BACKBONE|DICT|INTERRES
    41   19   89 1    
    42   20   21 2    
    43   20   22 1    
    44   22   23 1    
    45   22   24 1    
    46   22   90 1    
    47   23   91 1    
    48   23   92 1    
    49   23   93 1    
    50   24   25 am   BACKBONE|DICT|INTERRES
    51   24   94 1    
    52   25   26 2    
    53   25   27 1    
    54   27   28 1    
    55   27   29 1    
    56   27   95 1    
    57   28   96 1    
    58   28   97 1    
    59   28   98 1    
    60   29   30 am   BACKBONE|DICT|INTERRES
    61   29   99 1    
    62   30   31 2    
    63   30   32 1    
    64   32   33 1    
    65   32   34 1    
    66   32  100 1    
    67   33  101 1    
    68   33  102 1    
    69   33  103 1    
    70   34   35 am   BACKBONE|DICT|INTERRES
    71   34  104 1    
    72   35   36 2    
    73   37   38 2    
    74   37   39 am   BACKBONE|DICT|INTERRES
    75   39   40 1    
    76   39  105 1    
    77   40   41 1    
    78   40   42 1    
    79   40  106 1    
    80   41  107 1    
    81   41  108 1    
    82   41  109 1    
    83   42   43 2    
    84   42   44 am   BACKBONE|DICT|INTERRES
    85   44   45 1    
    86   44  110 1    
    87   45   46 1    
    88   45   47 1    
    89   45  111 1    
    90   46  112 1    
    91   46  113 1    
    92   46  114 1    
    93   47   48 2    
    94   47   49 am   BACKBONE|DICT|INTERRES
    95   49   50 1    
    96   49  115 1    
    97   50   51 1    
    98   50   52 1    
    99   50  116 1    
   100   51  117 1    
   101   51  118 1    
   102   51  119 1    
   103   52   53 2    
   104   52   54 am   BACKBONE|DICT|INTERRES
   105   54   55 1    
   106   54  120 1    
   107   55   56 1    
   108   55   57 1    
   109   55  121 1    
   110   56  122 1    
   111   56  123 1    
   112   56  124 1    
   113   57   58 2    
   114   57   59 am   BACKBONE|DICT|INTERRES
   115   59   60 1    
   116   59  125 1    
   117   60   61 1    
   118   60   62 1    
   119   60  126 1    
   120   61  127 1    
   121   61  128 1    
   122   61  129 1    
   123   62   63 2    
   124   62   64 am   BACKBONE|DICT|INTERRES
   125   64   65 1    
   126   64  130 1    
   127   65   66 1    
   128   65   69 1    
   129   65  131 1    
   130   66   67 am   BACKBONE|DICT|INTERRES
   131   66   68 2    
   132   67  132 1    
   133   67  133 1    
   134   69   70 1    
   135   69  134 1    
   136   69  135 1    
   137   70   71 1    
   138   71  136 1    
   139   71  137 1    
@<TRIPOS>SUBSTRUCTURE
     1 UNK         1 GROUP             0       ****    0 ROOT    
