@<TRIPOS>MOLECULE
3R137
137   139    1
SMALL
USER_CHARGES


@<TRIPOS>ATOM
      1 CA         23.6627   -3.2465    0.2498 C.3       0 UNK        -0.2020 
      2 C          25.0902   -2.8321   -0.0697 C.2       0 UNK         0.4855 
      3 O          25.4592   -1.6799    0.1579 O.2       0 UNK        -0.5197 
      4 N          25.9043   -3.7515   -0.6047 N.am      1 UNK        -0.4892 
      5 CA         27.2999   -3.4900   -0.9714 C.3       1 UNK         0.0835 
      6 C6         28.0836   -4.7958   -1.2449 C.3       12 UNK        -0.0855 
      7 S7         29.8285   -4.6313   -0.7390 S.3       12 UNK        -0.2931 
      8 C8         30.7052   -5.4166   -2.1246 C.3       12 UNK         0.0378 
      9 C9         30.6534   -4.5751   -3.3907 C.ar      12 UNK        -0.0802 
     10 C10        31.4184   -3.4089   -3.4910 C.ar      12 UNK        -0.0944 
     11 C11        31.4187   -2.6574   -4.6700 C.ar      12 UNK        -0.0787 
     12 C12        30.6408   -3.0821   -5.7527 C.ar      12 UNK        -0.0862 
     13 C13        29.8638   -4.2406   -5.6599 C.ar      12 UNK        -0.0733 
     14 C14        29.8746   -4.9834   -4.4768 C.ar      12 UNK        -0.0832 
     15 C15        29.0265   -4.7056   -6.8418 C.3       12 UNK         0.0240 
     16 S16        27.2691   -4.2924   -6.6230 S.3       12 UNK        -0.2522 
     17 C17        27.3324   -2.4762   -6.7525 C.3       12 UNK        -0.0967 
     18 CA         25.9202   -1.8431   -6.7945 C.3       5 UNK         0.0660 
     19 N          25.1732   -2.1156   -5.5616 N.am      5 UNK        -0.4015 
     20 C          23.8388   -2.1150   -5.4442 C.2       4 UNK         0.4946 
     21 O          23.0705   -1.9466   -6.3926 O.2       4 UNK        -0.5353 
     22 CA         23.2748   -2.2310   -4.0229 C.3       4 UNK         0.0277 
     23 CB         23.3943   -3.6684   -3.4898 C.3       4 UNK        -0.1981 
     24 N          23.9571   -1.2880   -3.1329 N.am      4 UNK        -0.4209 
     25 C          23.6653    0.0211   -3.0627 C.2       3 UNK         0.4942 
     26 O          22.7064    0.5363   -3.6376 O.2       3 UNK        -0.5208 
     27 CA         24.5931    0.9189   -2.2245 C.3       3 UNK         0.0250 
     28 CB         23.9970    1.1653   -0.8290 C.3       3 UNK        -0.1990 
     29 N          25.9469    0.3674   -2.1054 N.am      3 UNK        -0.4232 
     30 C          26.8824    0.4910   -3.0623 C.2       2 UNK         0.4993 
     31 O          26.7232    1.1751   -4.0714 O.2       2 UNK        -0.5286 
     32 CA         28.2109   -0.2758   -2.8909 C.3       2 UNK         0.0209 
     33 CB         29.3298    0.6748   -2.4361 C.3       2 UNK        -0.1931 
     34 N          28.1360   -1.4064   -1.9608 N.am      2 UNK        -0.4546 
     35 C          27.3728   -2.4908   -2.1446 C.2       1 UNK         0.5154 
     36 O          26.6809   -2.6730   -3.1504 O.2       1 UNK        -0.5181 
     37 C          25.9719   -0.3216   -7.0626 C.2       5 UNK         0.5014 
     38 O          27.0587    0.2429   -7.1953 O.2       5 UNK        -0.5248 
     39 N          24.7911    0.3122   -7.1261 N.am      6 UNK        -0.4434 
     40 CA         24.5608    1.7625   -7.1144 C.3       6 UNK         0.0363 
     41 CB         23.0457    2.0223   -7.1240 C.3       6 UNK        -0.1936 
     42 C          25.2495    2.5709   -8.2293 C.2       6 UNK         0.5081 
     43 O          25.4205    3.7800   -8.0703 O.2       6 UNK        -0.5248 
     44 N          25.6446    1.9072   -9.3247 N.am      7 UNK        -0.4718 
     45 CA         26.4725    2.4824  -10.3891 C.3       7 UNK         0.0273 
     46 CB         26.5082    1.5129  -11.5819 C.3       7 UNK        -0.1935 
     47 C          27.9047    2.8199   -9.9288 C.2       7 UNK         0.5018 
     48 O          28.5233    3.7087  -10.5142 O.2       7 UNK        -0.5186 
     49 N          28.4006    2.1033   -8.9052 N.am      8 UNK        -0.4240 
     50 CA         29.6930    2.2640   -8.2253 C.3       8 UNK         0.0235 
     51 CB         29.7278    3.5992   -7.4527 C.3       8 UNK        -0.2000 
     52 C          30.9363    2.0762   -9.1194 C.2       8 UNK         0.4941 
     53 O          32.0312    2.4650   -8.7136 O.2       8 UNK        -0.5273 
     54 N          30.7709    1.4662  -10.3027 N.am      9 UNK        -0.4262 
     55 CA         31.8124    1.3049  -11.3251 C.3       9 UNK         0.0264 
     56 CB         31.1816    0.7292  -12.6036 C.3       9 UNK        -0.1955 
     57 C          33.0114    0.4485  -10.8805 C.2       9 UNK         0.5031 
     58 O          34.1324    0.7017  -11.3238 O.2       9 UNK        -0.5390 
     59 N          32.7555   -0.5357  -10.0101 N.am      10 UNK        -0.4204 
     60 CA         33.7725   -1.3958   -9.4015 C.3       10 UNK         0.0237 
     61 CB         33.1521   -2.7810   -9.1456 C.3       10 UNK        -0.1985 
     62 C          34.3461   -0.8193   -8.0929 C.2       10 UNK         0.4970 
     63 O          35.3112   -1.3824   -7.5740 O.2       10 UNK        -0.4914 
     64 N          33.7336    0.2433   -7.5559 N.am      11 UNK        -0.4285 
     65 CA         34.0627    0.8338   -6.2522 C.3       11 UNK         0.1007 
     66 C          35.1105    1.9754   -6.3667 C.2       11 UNK         0.5703 
     67 N          35.6098    2.4700   -5.2413 N.am      11 UNK        -0.7361 
     68 O          35.4826    2.4203   -7.4515 O.2       11 UNK        -0.4986 
     69 C69        32.7797    1.2869   -5.4951 C.3       12 UNK        -0.0947 
     70 S70        31.4402    0.0416   -5.4031 S.3       12 UNK        -0.2240 
     71 C71        32.3186   -1.4348   -4.7925 C.3       12 UNK         0.0194 
     72 H72        23.4622   -4.2780   -0.0389 H         1 UNK         0.0906 
     73 H73        23.4771   -3.1511    1.3192 H         1 UNK         0.0906 
     74 H74        22.9589   -2.6014   -0.2756 H         1 UNK         0.0906 
     75 H75        25.5559   -4.6781   -0.8057 H         1 UNK         0.3140 
     76 H76        27.7423   -3.0106   -0.0943 H         1 UNK         0.1085 
     77 H77        27.6704   -5.6178   -0.6581 H         1 UNK         0.0836 
     78 H78        27.9974   -5.1062   -2.2877 H         1 UNK         0.0836 
     79 H79        30.2922   -6.4120   -2.2967 H         1 UNK         0.0731 
     80 H80        31.7475   -5.5668   -1.8395 H         1 UNK         0.0731 
     81 H81        32.0293   -3.1007   -2.6534 H         1 UNK         0.1312 
     82 H82        30.6442   -2.5104   -6.6701 H         1 UNK         0.1406 
     83 H83        29.2805   -5.8848   -4.4089 H         1 UNK         0.1631 
     84 H84        29.1230   -5.7865   -6.9533 H         1 UNK         0.0717 
     85 H85        29.3920   -4.2703   -7.7732 H         1 UNK         0.0717 
     86 H86        27.9028   -2.0811   -5.9094 H         1 UNK         0.0934 
     87 H87        27.8939   -2.2221   -7.6538 H         1 UNK         0.0934 
     88 H88        25.3826   -2.2899   -7.6338 H         1 UNK         0.0739 
     89 H89        25.7363   -2.2810   -4.7300 H         1 UNK         0.3093 
     90 H90        22.2126   -1.9788   -4.0624 H         1 UNK         0.0818 
     91 H91        22.9114   -4.3731   -4.1682 H         1 UNK         0.0819 
     92 H92        24.4309   -3.9863   -3.3801 H         1 UNK         0.0819 
     93 H93        22.9045   -3.7721   -2.5228 H         1 UNK         0.0819 
     94 H94        24.7963   -1.6219   -2.6776 H         1 UNK         0.3041 
     95 H95        24.6540    1.8860   -2.7291 H         1 UNK         0.0784 
     96 H96        23.0456    1.6934   -0.9050 H         1 UNK         0.0793 
     97 H97        23.8038    0.2356   -0.2949 H         1 UNK         0.0793 
     98 H98        24.6581    1.7767   -0.2147 H         1 UNK         0.0793 
     99 H99        26.1331   -0.2099   -1.2926 H         1 UNK         0.3024 
    100 H100       28.4797   -0.6720   -3.8734 H         1 UNK         0.1171 
    101 H101       29.1269    1.0987   -1.4520 H         1 UNK         0.0786 
    102 H102       29.4412    1.5057   -3.1346 H         1 UNK         0.0786 
    103 H103       30.2914    0.1626   -2.3935 H         1 UNK         0.0786 
    104 H104       28.6685   -1.3231   -1.1066 H         1 UNK         0.2977 
    105 H105       23.9653   -0.2695   -7.0175 H         1 UNK         0.3127 
    106 H106       24.9624    2.1329   -6.1687 H         1 UNK         0.0770 
    107 H107       22.5772    1.6362   -8.0300 H         1 UNK         0.0814 
    108 H108       22.8302    3.0906   -7.0741 H         1 UNK         0.0814 
    109 H109       22.5575    1.5564   -6.2676 H         1 UNK         0.0814 
    110 H110       25.4519    0.9174   -9.3737 H         1 UNK         0.2983 
    111 H111       26.0064    3.4148  -10.7154 H         1 UNK         0.0947 
    112 H112       25.5074    1.3284  -11.9730 H         1 UNK         0.0806 
    113 H113       26.9459    0.5515  -11.3106 H         1 UNK         0.0806 
    114 H114       27.1024    1.9228  -12.4001 H         1 UNK         0.0806 
    115 H115       27.7922    1.4089   -8.4742 H         1 UNK         0.3000 
    116 H116       29.7355    1.4608   -7.4885 H         1 UNK         0.0850 
    117 H117       30.6176    3.6719   -6.8269 H         1 UNK         0.0810 
    118 H118       28.8641    3.6959   -6.7945 H         1 UNK         0.0810 
    119 H119       29.7340    4.4556   -8.1276 H         1 UNK         0.0810 
    120 H120       29.8369    1.1797  -10.5559 H         1 UNK         0.3040 
    121 H121       32.1968    2.3010  -11.5550 H         1 UNK         0.0766 
    122 H122       31.9273    0.6238  -13.3930 H         1 UNK         0.0812 
    123 H123       30.7468   -0.2564  -12.4327 H         1 UNK         0.0812 
    124 H124       30.3971    1.3816  -12.9880 H         1 UNK         0.0812 
    125 H125       31.8010   -0.6716   -9.7103 H         1 UNK         0.3205 
    126 H126       34.6067   -1.5211  -10.0953 H         1 UNK         0.0754 
    127 H127       33.8887   -3.4699   -8.7296 H         1 UNK         0.0769 
    128 H128       32.3223   -2.7290   -8.4403 H         1 UNK         0.0769 
    129 H129       32.7815   -3.2267  -10.0690 H         1 UNK         0.0769 
    130 H130       33.0293    0.7410   -8.0862 H         1 UNK         0.2981 
    131 H131       34.5480    0.0710   -5.6421 H         1 UNK         0.0541 
    132 H132       35.3240    2.1171   -4.3415 H         1 UNK         0.3459 
    133 H133       36.2913    3.2109   -5.2943 H         1 UNK         0.3459 
    134 H134       32.3619    2.1769   -5.9674 H         1 UNK         0.0612 
    135 H135       33.0258    1.5779   -4.4728 H         1 UNK         0.0612 
    136 H136       32.7806   -1.1930   -3.8342 H         1 UNK         0.0624 
    137 H137       33.1254   -1.6965   -5.4756 H         1 UNK         0.0624 
@<TRIPOS>BOND
     1    1    2 1    
     2    1   72 1    
     3    1   73 1    
     4    1   74 1    
     5    2    3 2    
     6    2    4 am   BACKBONE|DICT|INTERRES
     7    4    5 1    
     8    4   75 1    
     9    5    6 1    
    10    5   35 1    
    11    5   76 1    
    12    6    7 1    
    13    6   77 1    
    14    6   78 1    
    15    7    8 1    
    16    8    9 1    
    17    8   79 1    
    18    8   80 1    
    19    9   10 ar   
    20    9   14 ar   
    21   10   11 ar   
    22   10   81 1    
    23   11   12 ar   
    24   11   71 1    
    25   12   13 ar   
    26   12   82 1    
    27   13   14 ar   
    28   13   15 1    
    29   14   83 1    
    30   15   16 1    
    31   15   84 1    
    32   15   85 1    
    33   16   17 1    
    34   17   18 1    
    35   17   86 1    
    36   17   87 1    
    37   18   19 1    
    38   18   37 1    
    39   18   88 1    
    40   19   20 am   BACKBONE|DICT|INTERRES
    41   19   89 1    
    42   20   21 2    
    43   20   22 1    
    44   22   23 1    
    45   22   24 1    
    46   22   90 1    
    47   23   91 1    
    48   23   92 1    
    49   23   93 1    
    50   24   25 am   BACKBONE|DICT|INTERRES
    51   24   94 1    
    52   25   26 2    
    53   25   27 1    
    54   27   28 1    
    55   27   29 1    
    56   27   95 1    
    57   28   96 1    
    58   28   97 1    
    59   28   98 1    
    60   29   30 am   BACKBONE|DICT|INTERRES
    61   29   99 1    
    62   30   31 2    
    63   30   32 1    
    64   32   33 1    
    65   32   34 1    
    66   32  100 1    
    67   33  101 1    
    68   33  102 1    
    69   33  103 1    
    70   34   35 am   BACKBONE|DICT|INTERRES
    71   34  104 1    
    72   35   36 2    
    73   37   38 2    
    74   37   39 am   BACKBONE|DICT|INTERRES
    75   39   40 1    
    76   39  105 1    
    77   40   41 1    
    78   40   42 1    
    79   40  106 1    
    80   41  107 1    
    81   41  108 1    
    82   41  109 1    
    83   42   43 2    
    84   42   44 am   BACKBONE|DICT|INTERRES
    85   44   45 1    
    86   44  110 1    
    87   45   46 1    
    88   45   47 1    
    89   45  111 1    
    90   46  112 1    
    91   46  113 1    
    92   46  114 1    
    93   47   48 2    
    94   47   49 am   BACKBONE|DICT|INTERRES
    95   49   50 1    
    96   49  115 1    
    97   50   51 1    
    98   50   52 1    
    99   50  116 1    
   100   51  117 1    
   101   51  118 1    
   102   51  119 1    
   103   52   53 2    
   104   52   54 am   BACKBONE|DICT|INTERRES
   105   54   55 1    
   106   54  120 1    
   107   55   56 1    
   108   55   57 1    
   109   55  121 1    
   110   56  122 1    
   111   56  123 1    
   112   56  124 1    
   113   57   58 2    
   114   57   59 am   BACKBONE|DICT|INTERRES
   115   59   60 1    
   116   59  125 1    
   117   60   61 1    
   118   60   62 1    
   119   60  126 1    
   120   61  127 1    
   121   61  128 1    
   122   61  129 1    
   123   62   63 2    
   124   62   64 am   BACKBONE|DICT|INTERRES
   125   64   65 1    
   126   64  130 1    
   127   65   66 1    
   128   65   69 1    
   129   65  131 1    
   130   66   67 am   BACKBONE|DICT|INTERRES
   131   66   68 2    
   132   67  132 1    
   133   67  133 1    
   134   69   70 1    
   135   69  134 1    
   136   69  135 1    
   137   70   71 1    
   138   71  136 1    
   139   71  137 1    
@<TRIPOS>SUBSTRUCTURE
     1 UNK         1 GROUP             0       ****    0 ROOT    
