@<TRIPOS>MOLECULE
3R137
137   139    1
SMALL
USER_CHARGES


@<TRIPOS>ATOM
      1 CA         23.2494   -4.0337   -1.9275 C.3       0 UNK        -0.2020 
      2 C          24.3527   -3.5052   -1.0243 C.2       0 UNK         0.4855 
      3 O          24.1285   -3.3058    0.1702 O.2       0 UNK        -0.5197 
      4 N          25.5441   -3.2623   -1.5836 N.am      1 UNK        -0.4892 
      5 CA         26.7447   -2.7711   -0.8902 C.3       1 UNK         0.0835 
      6 C6         28.0339   -3.1856   -1.6458 C.3       12 UNK        -0.0855 
      7 S7         28.1810   -4.9978   -1.8068 S.3       12 UNK        -0.2931 
      8 C8         29.9794   -5.1993   -1.9924 C.3       12 UNK         0.0378 
      9 C9         30.4771   -4.6319   -3.3137 C.ar      12 UNK        -0.0802 
     10 C10        31.2164   -3.4489   -3.3438 C.ar      12 UNK        -0.0944 
     11 C11        31.7016   -2.9308   -4.5492 C.ar      12 UNK        -0.0787 
     12 C12        31.4249   -3.6137   -5.7448 C.ar      12 UNK        -0.0862 
     13 C13        30.6810   -4.8019   -5.7259 C.ar      12 UNK        -0.0733 
     14 C14        30.2165   -5.3049   -4.5073 C.ar      12 UNK        -0.0832 
     15 C15        30.4051   -5.5868   -7.0035 C.3       12 UNK         0.0240 
     16 S16        29.1695   -4.8262   -8.1097 S.3       12 UNK        -0.2522 
     17 C17        27.7793   -4.3412   -7.0173 C.3       12 UNK        -0.0967 
     18 CA         27.2467   -2.9292   -7.3712 C.3       5 UNK         0.0660 
     19 N          25.9415   -2.6434   -6.7671 N.am      5 UNK        -0.4015 
     20 C          25.2116   -1.5473   -7.0257 C.2       4 UNK         0.4946 
     21 O          25.5457   -0.6810   -7.8371 O.2       4 UNK        -0.5353 
     22 CA         23.9305   -1.3211   -6.2016 C.3       4 UNK         0.0277 
     23 CB         23.4966   -2.5323   -5.3438 C.3       4 UNK        -0.1981 
     24 N          24.0700   -0.1159   -5.3737 N.am      4 UNK        -0.4209 
     25 C          25.0154    0.1053   -4.4474 C.2       3 UNK         0.4942 
     26 O          25.8633   -0.7333   -4.1295 O.2       3 UNK        -0.5208 
     27 CA         25.0741    1.5043   -3.8007 C.3       3 UNK         0.0250 
     28 CB         23.8669    2.4198   -4.1148 C.3       3 UNK        -0.1990 
     29 N          25.3215    1.3969   -2.3593 N.am      3 UNK        -0.4232 
     30 C          24.4949    0.8787   -1.4402 C.2       2 UNK         0.4993 
     31 O          23.3269    0.5482   -1.6560 O.2       2 UNK        -0.5286 
     32 CA         25.1147    0.5983   -0.0618 C.3       2 UNK         0.0209 
     33 CB         24.1105    0.8157    1.0844 C.3       2 UNK        -0.1931 
     34 N          25.5605   -0.7922   -0.0520 N.am      2 UNK        -0.4546 
     35 C          26.6616   -1.2438   -0.6652 C.2       1 UNK         0.5154 
     36 O          27.5525   -0.4982   -1.0776 O.2       1 UNK        -0.5181 
     37 C          28.2902   -1.8261   -7.0907 C.2       5 UNK         0.5014 
     38 O          29.0607   -1.5062   -7.9941 O.2       5 UNK        -0.5248 
     39 N          28.2708   -1.2147   -5.8948 N.am      6 UNK        -0.4434 
     40 CA         29.2036   -0.1399   -5.5416 C.3       6 UNK         0.0363 
     41 CB         29.1168    0.1782   -4.0423 C.3       6 UNK        -0.1936 
     42 C          29.0226    1.1277   -6.3925 C.2       6 UNK         0.5081 
     43 O          30.0080    1.8082   -6.6837 O.2       6 UNK        -0.5248 
     44 N          27.7764    1.3943   -6.8060 N.am      7 UNK        -0.4718 
     45 CA         27.4307    2.4647   -7.7368 C.3       7 UNK         0.0273 
     46 CB         25.9627    2.8732   -7.5353 C.3       7 UNK        -0.1935 
     47 C          27.6967    2.0500   -9.1914 C.2       7 UNK         0.5018 
     48 O          28.2946    2.8285   -9.9331 O.2       7 UNK        -0.5186 
     49 N          27.2674    0.8363   -9.5710 N.am      8 UNK        -0.4240 
     50 CA         27.3879    0.2971  -10.9302 C.3       8 UNK         0.0235 
     51 CB         26.5803   -1.0044  -11.0497 C.3       8 UNK        -0.2000 
     52 C          28.8408    0.0773  -11.3843 C.2       8 UNK         0.4941 
     53 O          29.1730    0.4225  -12.5189 O.2       8 UNK        -0.5273 
     54 N          29.6841   -0.4679  -10.4963 N.am      9 UNK        -0.4262 
     55 CA         31.1210   -0.6478  -10.7253 C.3       9 UNK         0.0264 
     56 CB         31.6456   -1.7722   -9.8155 C.3       9 UNK        -0.1955 
     57 C          31.9268    0.6436  -10.4959 C.2       9 UNK         0.5031 
     58 O          33.0925    0.6888  -10.8916 O.2       9 UNK        -0.5390 
     59 N          31.3023    1.6515   -9.8648 N.am      10 UNK        -0.4204 
     60 CA         31.8545    2.9513   -9.4726 C.3       10 UNK         0.0237 
     61 CB         32.1559    3.8154  -10.7156 C.3       10 UNK        -0.1985 
     62 C          33.0621    2.7936   -8.5323 C.2       10 UNK         0.4970 
     63 O          34.1672    3.2307   -8.8611 O.2       10 UNK        -0.4914 
     64 N          32.8254    2.1449   -7.3849 N.am      11 UNK        -0.4285 
     65 CA         33.8474    1.8695   -6.3618 C.3       11 UNK         0.1007 
     66 C          34.3923    3.1328   -5.6308 C.2       11 UNK         0.5703 
     67 N          33.7052    4.2692   -5.6614 N.am      11 UNK        -0.7361 
     68 O          35.4613    3.0785   -5.0272 O.2       11 UNK        -0.4986 
     69 C69        33.3607    0.8261   -5.3259 C.3       12 UNK        -0.0947 
     70 S70        32.9187   -0.7962   -6.0330 S.3       12 UNK        -0.2240 
     71 C71        32.5320   -1.6487   -4.4658 C.3       12 UNK         0.0194 
     72 H72        22.5719   -3.2257   -2.2033 H         1 UNK         0.0906 
     73 H73        23.6504   -4.4761   -2.8390 H         1 UNK         0.0906 
     74 H74        22.6735   -4.8007   -1.4102 H         1 UNK         0.0906 
     75 H75        25.6643   -3.4119   -2.5745 H         1 UNK         0.3140 
     76 H76        26.7832   -3.2266    0.1021 H         1 UNK         0.1085 
     77 H77        28.0574   -2.7449   -2.6447 H         1 UNK         0.0836 
     78 H78        28.9154   -2.8098   -1.1226 H         1 UNK         0.0836 
     79 H79        30.4890   -4.7331   -1.1475 H         1 UNK         0.0731 
     80 H80        30.2216   -6.2619   -1.9436 H         1 UNK         0.0731 
     81 H81        31.4260   -2.9307   -2.4176 H         1 UNK         0.1312 
     82 H82        31.7879   -3.2365   -6.6904 H         1 UNK         0.1406 
     83 H83        29.6480   -6.2251   -4.4825 H         1 UNK         0.1631 
     84 H84        30.0727   -6.5985   -6.7655 H         1 UNK         0.0717 
     85 H85        31.3380   -5.7034   -7.5566 H         1 UNK         0.0717 
     86 H86        26.9900   -5.0823   -7.1522 H         1 UNK         0.0934 
     87 H87        28.0598   -4.3917   -5.9655 H         1 UNK         0.0934 
     88 H88        27.0718   -2.9201   -8.4478 H         1 UNK         0.0739 
     89 H89        25.6094   -3.2896   -6.0673 H         1 UNK         0.3093 
     90 H90        23.1357   -1.1205   -6.9216 H         1 UNK         0.0818 
     91 H91        22.5572   -2.3254   -4.8311 H         1 UNK         0.0819 
     92 H92        23.3319   -3.4163   -5.9614 H         1 UNK         0.0819 
     93 H93        24.2319   -2.7872   -4.5812 H         1 UNK         0.0819 
     94 H94        23.4313    0.6371   -5.5868 H         1 UNK         0.3041 
     95 H95        25.9601    1.9840   -4.2190 H         1 UNK         0.0784 
     96 H96        23.7976    2.6364   -5.1811 H         1 UNK         0.0793 
     97 H97        22.9189    1.9781   -3.8062 H         1 UNK         0.0793 
     98 H98        23.9627    3.3787   -3.6053 H         1 UNK         0.0793 
     99 H99        26.2844    1.5357   -2.0828 H         1 UNK         0.3024 
    100 H100       25.9674    1.2630    0.0964 H         1 UNK         0.1171 
    101 H101       23.7335    1.8392    1.0816 H         1 UNK         0.0786 
    102 H102       24.5761    0.6437    2.0550 H         1 UNK         0.0786 
    103 H103       23.2499    0.1499    1.0052 H         1 UNK         0.0786 
    104 H104       24.8699   -1.4896    0.2112 H         1 UNK         0.2977 
    105 H105       27.5537   -1.4452   -5.2156 H         1 UNK         0.3127 
    106 H106       30.2029   -0.5161   -5.7446 H         1 UNK         0.0770 
    107 H107       28.1390    0.5687   -3.7631 H         1 UNK         0.0814 
    108 H108       29.8578    0.9276   -3.7618 H         1 UNK         0.0814 
    109 H109       29.3091   -0.7074   -3.4368 H         1 UNK         0.0814 
    110 H110       27.0486    0.7297   -6.5830 H         1 UNK         0.2983 
    111 H111       28.0539    3.3360   -7.5210 H         1 UNK         0.0947 
    112 H112       25.6764    3.6556   -8.2396 H         1 UNK         0.0806 
    113 H113       25.7999    3.2688   -6.5331 H         1 UNK         0.0806 
    114 H114       25.2796    2.0361   -7.6833 H         1 UNK         0.0806 
    115 H115       26.7535    0.2682   -8.9002 H         1 UNK         0.3000 
    116 H116       26.9425    1.0298  -11.6067 H         1 UNK         0.0850 
    117 H117       26.5831   -1.3708  -12.0772 H         1 UNK         0.0810 
    118 H118       25.5397   -0.8567  -10.7599 H         1 UNK         0.0810 
    119 H119       26.9952   -1.7931  -10.4237 H         1 UNK         0.0810 
    120 H120       29.3358   -0.7670   -9.5837 H         1 UNK         0.3040 
    121 H121       31.2751   -0.9532  -11.7624 H         1 UNK         0.0766 
    122 H122       32.6895   -1.9981  -10.0358 H         1 UNK         0.0812 
    123 H123       31.0770   -2.6928   -9.9485 H         1 UNK         0.0812 
    124 H124       31.5905   -1.4953   -8.7621 H         1 UNK         0.0812 
    125 H125       30.3391    1.4984   -9.5993 H         1 UNK         0.3205 
    126 H126       31.0755    3.4579   -8.9003 H         1 UNK         0.0754 
    127 H127       32.4917    4.8115  -10.4251 H         1 UNK         0.0769 
    128 H128       31.2660    3.9399  -11.3330 H         1 UNK         0.0769 
    129 H129       32.9369    3.3773  -11.3380 H         1 UNK         0.0769 
    130 H130       31.8758    1.8551   -7.1656 H         1 UNK         0.2981 
    131 H131       34.7033    1.4344   -6.8814 H         1 UNK         0.0541 
    132 H132       32.8242    4.3201   -6.1465 H         1 UNK         0.3459 
    133 H133       34.0704    5.0802   -5.1877 H         1 UNK         0.3459 
    134 H134       32.4919    1.2145   -4.7905 H         1 UNK         0.0612 
    135 H135       34.1327    0.6514   -4.5736 H         1 UNK         0.0612 
    136 H136       33.4725   -1.8759   -3.9621 H         1 UNK         0.0624 
    137 H137       31.9997   -0.9476   -3.8209 H         1 UNK         0.0624 
@<TRIPOS>BOND
     1    1    2 1    
     2    1   72 1    
     3    1   73 1    
     4    1   74 1    
     5    2    3 2    
     6    2    4 am   BACKBONE|DICT|INTERRES
     7    4    5 1    
     8    4   75 1    
     9    5    6 1    
    10    5   35 1    
    11    5   76 1    
    12    6    7 1    
    13    6   77 1    
    14    6   78 1    
    15    7    8 1    
    16    8    9 1    
    17    8   79 1    
    18    8   80 1    
    19    9   10 ar   
    20    9   14 ar   
    21   10   11 ar   
    22   10   81 1    
    23   11   12 ar   
    24   11   71 1    
    25   12   13 ar   
    26   12   82 1    
    27   13   14 ar   
    28   13   15 1    
    29   14   83 1    
    30   15   16 1    
    31   15   84 1    
    32   15   85 1    
    33   16   17 1    
    34   17   18 1    
    35   17   86 1    
    36   17   87 1    
    37   18   19 1    
    38   18   37 1    
    39   18   88 1    
    40   19   20 am   BACKBONE|DICT|INTERRES
    41   19   89 1    
    42   20   21 2    
    43   20   22 1    
    44   22   23 1    
    45   22   24 1    
    46   22   90 1    
    47   23   91 1    
    48   23   92 1    
    49   23   93 1    
    50   24   25 am   BACKBONE|DICT|INTERRES
    51   24   94 1    
    52   25   26 2    
    53   25   27 1    
    54   27   28 1    
    55   27   29 1    
    56   27   95 1    
    57   28   96 1    
    58   28   97 1    
    59   28   98 1    
    60   29   30 am   BACKBONE|DICT|INTERRES
    61   29   99 1    
    62   30   31 2    
    63   30   32 1    
    64   32   33 1    
    65   32   34 1    
    66   32  100 1    
    67   33  101 1    
    68   33  102 1    
    69   33  103 1    
    70   34   35 am   BACKBONE|DICT|INTERRES
    71   34  104 1    
    72   35   36 2    
    73   37   38 2    
    74   37   39 am   BACKBONE|DICT|INTERRES
    75   39   40 1    
    76   39  105 1    
    77   40   41 1    
    78   40   42 1    
    79   40  106 1    
    80   41  107 1    
    81   41  108 1    
    82   41  109 1    
    83   42   43 2    
    84   42   44 am   BACKBONE|DICT|INTERRES
    85   44   45 1    
    86   44  110 1    
    87   45   46 1    
    88   45   47 1    
    89   45  111 1    
    90   46  112 1    
    91   46  113 1    
    92   46  114 1    
    93   47   48 2    
    94   47   49 am   BACKBONE|DICT|INTERRES
    95   49   50 1    
    96   49  115 1    
    97   50   51 1    
    98   50   52 1    
    99   50  116 1    
   100   51  117 1    
   101   51  118 1    
   102   51  119 1    
   103   52   53 2    
   104   52   54 am   BACKBONE|DICT|INTERRES
   105   54   55 1    
   106   54  120 1    
   107   55   56 1    
   108   55   57 1    
   109   55  121 1    
   110   56  122 1    
   111   56  123 1    
   112   56  124 1    
   113   57   58 2    
   114   57   59 am   BACKBONE|DICT|INTERRES
   115   59   60 1    
   116   59  125 1    
   117   60   61 1    
   118   60   62 1    
   119   60  126 1    
   120   61  127 1    
   121   61  128 1    
   122   61  129 1    
   123   62   63 2    
   124   62   64 am   BACKBONE|DICT|INTERRES
   125   64   65 1    
   126   64  130 1    
   127   65   66 1    
   128   65   69 1    
   129   65  131 1    
   130   66   67 am   BACKBONE|DICT|INTERRES
   131   66   68 2    
   132   67  132 1    
   133   67  133 1    
   134   69   70 1    
   135   69  134 1    
   136   69  135 1    
   137   70   71 1    
   138   71  136 1    
   139   71  137 1    
@<TRIPOS>SUBSTRUCTURE
     1 UNK         1 GROUP             0       ****    0 ROOT    
