@<TRIPOS>MOLECULE
3R137
137   139    1
SMALL
USER_CHARGES


@<TRIPOS>ATOM
      1 CA         31.1338    0.3846    0.0934 C.3       0 UNK        -0.2020 
      2 C          30.1494   -0.4556   -0.7066 C.2       0 UNK         0.4855 
      3 O          29.5879    0.0334   -1.6854 O.2       0 UNK        -0.5197 
      4 N          29.9453   -1.7145   -0.2976 N.am      1 UNK        -0.4892 
      5 CA         29.0491   -2.6858   -0.9385 C.3       1 UNK         0.0835 
      6 C6         29.1990   -4.1004   -0.3214 C.3       12 UNK        -0.0855 
      7 S7         30.9154   -4.7185   -0.3569 S.3       12 UNK        -0.2931 
      8 C8         30.8745   -5.8541   -1.7831 C.3       12 UNK         0.0378 
      9 C9         30.6429   -5.1411   -3.1115 C.ar      12 UNK        -0.0802 
     10 C10        31.4558   -4.0695   -3.4921 C.ar      12 UNK        -0.0944 
     11 C11        31.2718   -3.4401   -4.7251 C.ar      12 UNK        -0.0787 
     12 C12        30.2761   -3.8989   -5.5916 C.ar      12 UNK        -0.0862 
     13 C13        29.4506   -4.9717   -5.2274 C.ar      12 UNK        -0.0733 
     14 C14        29.6412   -5.5822   -3.9824 C.ar      12 UNK        -0.0832 
     15 C15        28.3875   -5.5414   -6.1688 C.3       12 UNK         0.0240 
     16 S16        27.7293   -4.3728   -7.4061 S.3       12 UNK        -0.2522 
     17 C17        26.6856   -3.3069   -6.3618 C.3       12 UNK        -0.0967 
     18 CA         26.0700   -2.1402   -7.1741 C.3       5 UNK         0.0660 
     19 N          24.8417   -1.6310   -6.5666 N.am      5 UNK        -0.4015 
     20 C          23.8374   -1.0598   -7.2474 C.2       4 UNK         0.4946 
     21 O          23.7937   -0.9899   -8.4759 O.2       4 UNK        -0.5353 
     22 CA         22.6804   -0.4571   -6.4287 C.3       4 UNK         0.0277 
     23 CB         21.5156   -1.4556   -6.3309 C.3       4 UNK        -0.1981 
     24 N          23.0727   -0.0399   -5.0804 N.am      4 UNK        -0.4209 
     25 C          23.9024    0.9775   -4.8088 C.2       3 UNK         0.4942 
     26 O          24.3943    1.7096   -5.6667 O.2       3 UNK        -0.5208 
     27 CA         24.2927    1.1697   -3.3325 C.3       3 UNK         0.0250 
     28 CB         23.2606    2.0526   -2.6130 C.3       3 UNK        -0.1990 
     29 N          24.4675   -0.0884   -2.5931 N.am      3 UNK        -0.4232 
     30 C          25.3317   -1.0573   -2.9263 C.2       2 UNK         0.4993 
     31 O          26.0337   -1.0331   -3.9403 O.2       2 UNK        -0.5286 
     32 CA         25.3821   -2.2937   -2.0231 C.3       2 UNK         0.0209 
     33 CB         24.5951   -3.4511   -2.6600 C.3       2 UNK        -0.1931 
     34 N          26.7762   -2.6990   -1.8511 N.am      2 UNK        -0.4546 
     35 C          27.5716   -2.2435   -0.8763 C.2       1 UNK         0.5154 
     36 O          27.1710   -1.5463    0.0610 O.2       1 UNK        -0.5181 
     37 C          27.0622   -0.9826   -7.3777 C.2       5 UNK         0.5014 
     38 O          27.5471   -0.7956   -8.4919 O.2       5 UNK        -0.5248 
     39 N          27.2962   -0.1914   -6.3179 N.am      6 UNK        -0.4434 
     40 CA         28.1894    0.9747   -6.2901 C.3       6 UNK         0.0363 
     41 CB         28.1905    1.5744   -4.8767 C.3       6 UNK        -0.1936 
     42 C          27.8620    2.0579   -7.3344 C.2       6 UNK         0.5081 
     43 O          28.7620    2.7792   -7.7609 O.2       6 UNK        -0.5248 
     44 N          26.5968    2.1276   -7.7683 N.am      7 UNK        -0.4718 
     45 CA         26.1307    2.9483   -8.8879 C.3       7 UNK         0.0273 
     46 CB         24.5991    2.8424   -8.9729 C.3       7 UNK        -0.1935 
     47 C          26.7678    2.5980  -10.2504 C.2       7 UNK         0.5018 
     48 O          26.7307    3.4398  -11.1493 O.2       7 UNK        -0.5186 
     49 N          27.3293    1.3888  -10.3959 N.am      8 UNK        -0.4240 
     50 CA         27.9715    0.9052  -11.6178 C.3       8 UNK         0.0235 
     51 CB         26.9177    0.2388  -12.5257 C.3       8 UNK        -0.2000 
     52 C          29.1571   -0.0195  -11.2886 C.2       8 UNK         0.4941 
     53 O          29.3397   -1.0386  -11.9584 O.2       8 UNK        -0.5273 
     54 N          29.9499    0.3439  -10.2727 N.am      9 UNK        -0.4262 
     55 CA         31.1377   -0.3864   -9.8317 C.3       9 UNK         0.0264 
     56 CB         30.7471   -1.4380   -8.7761 C.3       9 UNK        -0.1955 
     57 C          32.1634    0.6062   -9.2748 C.2       9 UNK         0.5031 
     58 O          31.8172    1.7573   -8.9984 O.2       9 UNK        -0.5390 
     59 N          33.4066    0.1370   -9.0989 N.am      10 UNK        -0.4204 
     60 CA         34.5562    0.9241   -8.6307 C.3       10 UNK         0.0237 
     61 CB         35.8188    0.0475   -8.6732 C.3       10 UNK        -0.1985 
     62 C          34.3882    1.5525   -7.2339 C.2       10 UNK         0.4970 
     63 O          35.0081    2.5815   -6.9623 O.2       10 UNK        -0.4914 
     64 N          33.5546    0.9372   -6.3868 N.am      11 UNK        -0.4285 
     65 CA         33.1332    1.4731   -5.0852 C.3       11 UNK         0.1007 
     66 C          32.0958    2.6339   -5.1609 C.2       11 UNK         0.5703 
     67 N          31.5443    2.9684   -6.3213 N.am      11 UNK        -0.7361 
     68 O          31.8019    3.2586   -4.1446 O.2       11 UNK        -0.4986 
     69 C69        32.6900    0.3414   -4.1210 C.3       12 UNK        -0.0947 
     70 S70        31.3243   -0.6921   -4.7604 S.3       12 UNK        -0.2240 
     71 C71        32.1564   -2.2694   -5.1192 C.3       12 UNK         0.0194 
     72 H72        30.6320    1.2612    0.5022 H         1 UNK         0.0906 
     73 H73        31.5702   -0.1741    0.9212 H         1 UNK         0.0906 
     74 H74        31.9443    0.7253   -0.5503 H         1 UNK         0.0906 
     75 H75        30.4344   -2.0585    0.5162 H         1 UNK         0.3140 
     76 H76        29.3345   -2.7304   -1.9922 H         1 UNK         0.1085 
     77 H77        28.8701   -4.0967    0.7199 H         1 UNK         0.0836 
     78 H78        28.5541   -4.8164   -0.8351 H         1 UNK         0.0836 
     79 H79        31.8279   -6.3815   -1.8353 H         1 UNK         0.0731 
     80 H80        30.1134   -6.6161   -1.6076 H         1 UNK         0.0731 
     81 H81        32.2325   -3.7233   -2.8236 H         1 UNK         0.1312 
     82 H82        30.1551   -3.4164   -6.5509 H         1 UNK         0.1406 
     83 H83        29.0215   -6.4233   -3.7011 H         1 UNK         0.1631 
     84 H84        27.5511   -5.9422   -5.5938 H         1 UNK         0.0717 
     85 H85        28.8266   -6.3860   -6.7011 H         1 UNK         0.0717 
     86 H86        25.8924   -3.9375   -5.9576 H         1 UNK         0.0934 
     87 H87        27.2576   -2.9507   -5.5023 H         1 UNK         0.0934 
     88 H88        25.8110   -2.5248   -8.1636 H         1 UNK         0.0739 
     89 H89        24.8404   -1.5754   -5.5561 H         1 UNK         0.3093 
     90 H90        22.3298    0.4279   -6.9646 H         1 UNK         0.0818 
     91 H91        20.6555   -1.0149   -5.8263 H         1 UNK         0.0819 
     92 H92        21.1826   -1.7641   -7.3230 H         1 UNK         0.0819 
     93 H93        21.7995   -2.3580   -5.7878 H         1 UNK         0.0819 
     94 H94        22.7099   -0.5810   -4.3090 H         1 UNK         0.3041 
     95 H95        25.2516    1.6902   -3.3150 H         1 UNK         0.0784 
     96 H96        23.1281    3.0015   -3.1350 H         1 UNK         0.0793 
     97 H97        22.2830    1.5719   -2.5578 H         1 UNK         0.0793 
     98 H98        23.5782    2.2872   -1.5968 H         1 UNK         0.0793 
     99 H99        23.9160   -0.1945   -1.7532 H         1 UNK         0.3024 
    100 H100       24.9367   -2.0583   -1.0535 H         1 UNK         0.1171 
    101 H101       23.5465   -3.1837   -2.7973 H         1 UNK         0.0786 
    102 H102       24.6208   -4.3396   -2.0288 H         1 UNK         0.0786 
    103 H103       24.9930   -3.7258   -3.6374 H         1 UNK         0.0786 
    104 H104       27.1820   -3.2293   -2.6084 H         1 UNK         0.2977 
    105 H105       26.8494   -0.4312   -5.4333 H         1 UNK         0.3127 
    106 H106       29.1961    0.6159   -6.5084 H         1 UNK         0.0770 
    107 H107       28.9046    2.3953   -4.8020 H         1 UNK         0.0814 
    108 H108       28.4741    0.8320   -4.1299 H         1 UNK         0.0814 
    109 H109       27.2103    1.9671   -4.6082 H         1 UNK         0.0814 
    110 H110       25.9024    1.5571   -7.3009 H         1 UNK         0.2983 
    111 H111       26.3940    3.9849   -8.6679 H         1 UNK         0.0947 
    112 H112       24.2069    3.4598   -9.7823 H         1 UNK         0.0806 
    113 H113       24.1258    3.1806   -8.0508 H         1 UNK         0.0806 
    114 H114       24.2773    1.8166   -9.1581 H         1 UNK         0.0806 
    115 H115       27.3393    0.7393   -9.6104 H         1 UNK         0.3000 
    116 H116       28.3996    1.7521  -12.1583 H         1 UNK         0.0850 
    117 H117       27.3606   -0.0960  -13.4645 H         1 UNK         0.0810 
    118 H118       26.1151    0.9316  -12.7788 H         1 UNK         0.0810 
    119 H119       26.4705   -0.6313  -12.0433 H         1 UNK         0.0810 
    120 H120       29.7911    1.2216   -9.7906 H         1 UNK         0.3040 
    121 H121       31.5931   -0.8863  -10.6894 H         1 UNK         0.0766 
    122 H122       31.6022   -2.0499   -8.4898 H         1 UNK         0.0812 
    123 H123       29.9822   -2.1158   -9.1563 H         1 UNK         0.0812 
    124 H124       30.3544   -0.9743   -7.8710 H         1 UNK         0.0812 
    125 H125       33.5975   -0.8225   -9.3514 H         1 UNK         0.3205 
    126 H126       34.6901    1.7482   -9.3347 H         1 UNK         0.0754 
    127 H127       36.6977    0.6119   -8.3576 H         1 UNK         0.0769 
    128 H128       36.0173   -0.3164   -9.6816 H         1 UNK         0.0769 
    129 H129       35.7330   -0.8169   -8.0133 H         1 UNK         0.0769 
    130 H130       33.0715    0.1086   -6.6960 H         1 UNK         0.2981 
    131 H131       34.0167    1.9257   -4.6309 H         1 UNK         0.0541 
    132 H132       31.7583    2.4694   -7.1786 H         1 UNK         0.3459 
    133 H133       30.8613    3.7076   -6.3485 H         1 UNK         0.3459 
    134 H134       32.3721    0.7578   -3.1635 H         1 UNK         0.0612 
    135 H135       33.5498   -0.2851   -3.8835 H         1 UNK         0.0612 
    136 H136       33.1069   -2.3372   -4.5894 H         1 UNK         0.0624 
    137 H137       32.3965   -2.3174   -6.1815 H         1 UNK         0.0624 
@<TRIPOS>BOND
     1    1    2 1    
     2    1   72 1    
     3    1   73 1    
     4    1   74 1    
     5    2    3 2    
     6    2    4 am   BACKBONE|DICT|INTERRES
     7    4    5 1    
     8    4   75 1    
     9    5    6 1    
    10    5   35 1    
    11    5   76 1    
    12    6    7 1    
    13    6   77 1    
    14    6   78 1    
    15    7    8 1    
    16    8    9 1    
    17    8   79 1    
    18    8   80 1    
    19    9   10 ar   
    20    9   14 ar   
    21   10   11 ar   
    22   10   81 1    
    23   11   12 ar   
    24   11   71 1    
    25   12   13 ar   
    26   12   82 1    
    27   13   14 ar   
    28   13   15 1    
    29   14   83 1    
    30   15   16 1    
    31   15   84 1    
    32   15   85 1    
    33   16   17 1    
    34   17   18 1    
    35   17   86 1    
    36   17   87 1    
    37   18   19 1    
    38   18   37 1    
    39   18   88 1    
    40   19   20 am   BACKBONE|DICT|INTERRES
    41   19   89 1    
    42   20   21 2    
    43   20   22 1    
    44   22   23 1    
    45   22   24 1    
    46   22   90 1    
    47   23   91 1    
    48   23   92 1    
    49   23   93 1    
    50   24   25 am   BACKBONE|DICT|INTERRES
    51   24   94 1    
    52   25   26 2    
    53   25   27 1    
    54   27   28 1    
    55   27   29 1    
    56   27   95 1    
    57   28   96 1    
    58   28   97 1    
    59   28   98 1    
    60   29   30 am   BACKBONE|DICT|INTERRES
    61   29   99 1    
    62   30   31 2    
    63   30   32 1    
    64   32   33 1    
    65   32   34 1    
    66   32  100 1    
    67   33  101 1    
    68   33  102 1    
    69   33  103 1    
    70   34   35 am   BACKBONE|DICT|INTERRES
    71   34  104 1    
    72   35   36 2    
    73   37   38 2    
    74   37   39 am   BACKBONE|DICT|INTERRES
    75   39   40 1    
    76   39  105 1    
    77   40   41 1    
    78   40   42 1    
    79   40  106 1    
    80   41  107 1    
    81   41  108 1    
    82   41  109 1    
    83   42   43 2    
    84   42   44 am   BACKBONE|DICT|INTERRES
    85   44   45 1    
    86   44  110 1    
    87   45   46 1    
    88   45   47 1    
    89   45  111 1    
    90   46  112 1    
    91   46  113 1    
    92   46  114 1    
    93   47   48 2    
    94   47   49 am   BACKBONE|DICT|INTERRES
    95   49   50 1    
    96   49  115 1    
    97   50   51 1    
    98   50   52 1    
    99   50  116 1    
   100   51  117 1    
   101   51  118 1    
   102   51  119 1    
   103   52   53 2    
   104   52   54 am   BACKBONE|DICT|INTERRES
   105   54   55 1    
   106   54  120 1    
   107   55   56 1    
   108   55   57 1    
   109   55  121 1    
   110   56  122 1    
   111   56  123 1    
   112   56  124 1    
   113   57   58 2    
   114   57   59 am   BACKBONE|DICT|INTERRES
   115   59   60 1    
   116   59  125 1    
   117   60   61 1    
   118   60   62 1    
   119   60  126 1    
   120   61  127 1    
   121   61  128 1    
   122   61  129 1    
   123   62   63 2    
   124   62   64 am   BACKBONE|DICT|INTERRES
   125   64   65 1    
   126   64  130 1    
   127   65   66 1    
   128   65   69 1    
   129   65  131 1    
   130   66   67 am   BACKBONE|DICT|INTERRES
   131   66   68 2    
   132   67  132 1    
   133   67  133 1    
   134   69   70 1    
   135   69  134 1    
   136   69  135 1    
   137   70   71 1    
   138   71  136 1    
   139   71  137 1    
@<TRIPOS>SUBSTRUCTURE
     1 UNK         1 GROUP             0       ****    0 ROOT    
