@<TRIPOS>MOLECULE
3R137
137   139    1
SMALL
USER_CHARGES


@<TRIPOS>ATOM
      1 CA         28.8205    2.5208   -1.8850 C.3       0 UNK        -0.2020 
      2 C          28.5430    1.1569   -1.2700 C.2       0 UNK         0.4855 
      3 O          28.1453    1.0866   -0.1073 O.2       0 UNK        -0.5197 
      4 N          28.7603    0.0850   -2.0458 N.am      1 UNK        -0.4892 
      5 CA         28.6231   -1.3291   -1.6634 C.3       1 UNK         0.0835 
      6 C6         29.6927   -1.8047   -0.6424 C.3       12 UNK        -0.0855 
      7 S7         31.4035   -1.4976   -1.1991 S.3       12 UNK        -0.2931 
      8 C8         31.7854   -3.0305   -2.1065 C.3       12 UNK         0.0378 
      9 C9         31.1179   -3.0700   -3.4752 C.ar      12 UNK        -0.0802 
     10 C10        31.5317   -2.1869   -4.4754 C.ar      12 UNK        -0.0944 
     11 C11        30.9685   -2.2452   -5.7520 C.ar      12 UNK        -0.0787 
     12 C12        29.9635   -3.1790   -6.0187 C.ar      12 UNK        -0.0862 
     13 C13        29.5203   -4.0600   -5.0223 C.ar      12 UNK        -0.0733 
     14 C14        30.1126   -4.0022   -3.7550 C.ar      12 UNK        -0.0832 
     15 C15        28.4603   -5.1311   -5.2894 C.3       12 UNK         0.0240 
     16 S16        27.3261   -4.7875   -6.6795 S.3       12 UNK        -0.2522 
     17 C17        26.1248   -3.6505   -5.9119 C.3       12 UNK        -0.0967 
     18 CA         24.9839   -3.2792   -6.8997 C.3       5 UNK         0.0660 
     19 N          23.7268   -3.0372   -6.1914 N.am      5 UNK        -0.4015 
     20 C          22.5232   -3.4742   -6.5896 C.2       4 UNK         0.4946 
     21 O          22.3492   -4.1745   -7.5887 O.2       4 UNK        -0.5353 
     22 CA         21.2958   -3.1023   -5.7338 C.3       4 UNK         0.0277 
     23 CB         20.7744   -4.3383   -4.9805 C.3       4 UNK        -0.1981 
     24 N          21.5629   -2.0399   -4.7641 N.am      4 UNK        -0.4209 
     25 C          21.6084   -0.7314   -5.0497 C.2       3 UNK         0.4942 
     26 O          21.3250   -0.2597   -6.1510 O.2       3 UNK        -0.5208 
     27 CA         22.0594    0.2106   -3.9160 C.3       3 UNK         0.0250 
     28 CB         20.8413    0.8662   -3.2448 C.3       3 UNK        -0.1990 
     29 N          22.8868   -0.4398   -2.8896 N.am      3 UNK        -0.4232 
     30 C          24.0977   -0.9666   -3.1145 C.2       2 UNK         0.4993 
     31 O          24.6428   -0.9913   -4.2205 O.2       2 UNK        -0.5286 
     32 CA         24.7976   -1.6363   -1.9322 C.3       2 UNK         0.0209 
     33 CB         24.4254   -3.1313   -1.8679 C.3       2 UNK        -0.1931 
     34 N          26.2326   -1.4673   -2.1316 N.am      2 UNK        -0.4546 
     35 C          27.1855   -1.6713   -1.2176 C.2       1 UNK         0.5154 
     36 O          26.9608   -2.0835   -0.0772 O.2       1 UNK        -0.5181 
     37 C          25.3428   -2.0446   -7.7475 C.2       5 UNK         0.5014 
     38 O          24.7623   -0.9700   -7.5712 O.2       5 UNK        -0.5248 
     39 N          26.3396   -2.1968   -8.6276 N.am      6 UNK        -0.4434 
     40 CA         26.9069   -1.1320   -9.4623 C.3       6 UNK         0.0363 
     41 CB         27.5923   -1.7703  -10.6852 C.3       6 UNK        -0.1936 
     42 C          27.8618   -0.2158   -8.6678 C.2       6 UNK         0.5081 
     43 O          28.9700    0.0616   -9.1260 O.2       6 UNK        -0.5248 
     44 N          27.4205    0.2393   -7.4861 N.am      7 UNK        -0.4718 
     45 CA         28.1869    1.0027   -6.4926 C.3       7 UNK         0.0273 
     46 CB         27.2729    1.3256   -5.3008 C.3       7 UNK        -0.1935 
     47 C          28.8497    2.2838   -7.0281 C.2       7 UNK         0.5018 
     48 O          29.9228    2.6535   -6.5500 O.2       7 UNK        -0.5186 
     49 N          28.2343    2.8992   -8.0480 N.am      8 UNK        -0.4240 
     50 CA         28.7489    4.0539   -8.7905 C.3       8 UNK         0.0235 
     51 CB         27.6912    4.5037   -9.8115 C.3       8 UNK        -0.2000 
     52 C          30.1023    3.8132   -9.4898 C.2       8 UNK         0.4941 
     53 O          30.8031    4.7852   -9.7735 O.2       8 UNK        -0.5273 
     54 N          30.4656    2.5442   -9.7347 N.am      9 UNK        -0.4262 
     55 CA         31.7731    2.1443  -10.2603 C.3       9 UNK         0.0264 
     56 CB         31.6741    0.7176  -10.8262 C.3       9 UNK        -0.1955 
     57 C          32.9082    2.2265   -9.2206 C.2       9 UNK         0.5031 
     58 O          34.0691    2.0867   -9.6097 O.2       9 UNK        -0.5390 
     59 N          32.5772    2.4088   -7.9303 N.am      10 UNK        -0.4204 
     60 CA         33.4548    2.4868   -6.7502 C.3       10 UNK         0.0237 
     61 CB         34.4591    3.6508   -6.8589 C.3       10 UNK        -0.1985 
     62 C          34.1632    1.1680   -6.3881 C.2       10 UNK         0.4970 
     63 O          34.2221    0.8308   -5.2056 O.2       10 UNK        -0.4914 
     64 N          34.6469    0.4376   -7.3995 N.am      11 UNK        -0.4285 
     65 CA         35.2346   -0.9107   -7.3220 C.3       11 UNK         0.1007 
     66 C          36.5917   -0.9922   -6.5574 C.2       11 UNK         0.5703 
     67 N          37.2907    0.1144   -6.3328 N.am      11 UNK        -0.7361 
     68 O          37.0411   -2.0763   -6.1919 O.2       11 UNK        -0.4986 
     69 C69        34.2106   -1.9873   -6.8555 C.3       12 UNK        -0.0947 
     70 S70        32.7166   -2.0568   -7.9066 S.3       12 UNK        -0.2240 
     71 C71        31.4426   -1.3011   -6.8459 C.3       12 UNK         0.0194 
     72 H72        29.3673    3.1462   -1.1796 H         1 UNK         0.0906 
     73 H73        29.4184    2.4448   -2.7932 H         1 UNK         0.0906 
     74 H74        27.8839    3.0218   -2.1282 H         1 UNK         0.0906 
     75 H75        29.1067    0.2322   -2.9828 H         1 UNK         0.3140 
     76 H76        28.7759   -1.8960   -2.5809 H         1 UNK         0.1085 
     77 H77        29.5762   -2.8694   -0.4313 H         1 UNK         0.0836 
     78 H78        29.5570   -1.2942    0.3128 H         1 UNK         0.0836 
     79 H79        31.5060   -3.8961   -1.5037 H         1 UNK         0.0731 
     80 H80        32.8661   -3.0936   -2.2423 H         1 UNK         0.0731 
     81 H81        32.3034   -1.4605   -4.2581 H         1 UNK         0.1312 
     82 H82        29.5459   -3.2226   -7.0145 H         1 UNK         0.1406 
     83 H83        29.7979   -4.6951   -2.9859 H         1 UNK         0.1631 
     84 H84        27.8681   -5.3073   -4.3900 H         1 UNK         0.0717 
     85 H85        28.9782   -6.0670   -5.5025 H         1 UNK         0.0717 
     86 H86        25.7139   -4.1665   -5.0426 H         1 UNK         0.0934 
     87 H87        26.6368   -2.7688   -5.5188 H         1 UNK         0.0934 
     88 H88        24.8367   -4.1116   -7.5915 H         1 UNK         0.0739 
     89 H89        23.7877   -2.3610   -5.4374 H         1 UNK         0.3093 
     90 H90        20.5135   -2.7645   -6.4171 H         1 UNK         0.0818 
     91 H91        21.5153   -4.7293   -4.2820 H         1 UNK         0.0819 
     92 H92        19.8691   -4.1084   -4.4182 H         1 UNK         0.0819 
     93 H93        20.5256   -5.1426   -5.6744 H         1 UNK         0.0819 
     94 H94        21.7859   -2.3290   -3.8233 H         1 UNK         0.3041 
     95 H95        22.6621    0.9973   -4.3754 H         1 UNK         0.0784 
     96 H96        20.2216    1.3824   -3.9796 H         1 UNK         0.0793 
     97 H97        20.2095    0.1303   -2.7458 H         1 UNK         0.0793 
     98 H98        21.1456    1.6068   -2.5049 H         1 UNK         0.0793 
     99 H99        22.5022   -0.4730   -1.9557 H         1 UNK         0.3024 
    100 H100       24.5062   -1.1357   -1.0059 H         1 UNK         0.1171 
    101 H101       24.7230   -3.6601   -2.7740 H         1 UNK         0.0786 
    102 H102       23.3494   -3.2640   -1.7496 H         1 UNK         0.0786 
    103 H103       24.9012   -3.6278   -1.0223 H         1 UNK         0.0786 
    104 H104       26.4744   -1.1034   -3.0450 H         1 UNK         0.2977 
    105 H105       26.8033   -3.0945   -8.6689 H         1 UNK         0.3127 
    106 H106       26.0933   -0.5023   -9.8285 H         1 UNK         0.0770 
    107 H107       28.4372   -2.3953  -10.3930 H         1 UNK         0.0814 
    108 H108       27.9729   -1.0058  -11.3640 H         1 UNK         0.0814 
    109 H109       26.8970   -2.3874  -11.2544 H         1 UNK         0.0814 
    110 H110       26.4725   -0.0197   -7.2276 H         1 UNK         0.2983 
    111 H111       28.9912    0.3549   -6.1393 H         1 UNK         0.0947 
    112 H112       26.3902    1.8866   -5.6103 H         1 UNK         0.0806 
    113 H113       27.7936    1.9271   -4.5565 H         1 UNK         0.0806 
    114 H114       26.9323    0.4166   -4.8059 H         1 UNK         0.0806 
    115 H115       27.3652    2.5017   -8.3736 H         1 UNK         0.3000 
    116 H116       28.8998    4.8621   -8.0718 H         1 UNK         0.0850 
    117 H117       28.0287    5.3831  -10.3622 H         1 UNK         0.0810 
    118 H118       26.7542    4.7715   -9.3226 H         1 UNK         0.0810 
    119 H119       27.4792    3.7229  -10.5432 H         1 UNK         0.0810 
    120 H120       29.8348    1.7868   -9.4815 H         1 UNK         0.3040 
    121 H121       32.0341    2.8168  -11.0801 H         1 UNK         0.0766 
    122 H122       30.8801    0.6363  -11.5686 H         1 UNK         0.0812 
    123 H123       31.4755   -0.0140  -10.0420 H         1 UNK         0.0812 
    124 H124       32.6051    0.4242  -11.3130 H         1 UNK         0.0812 
    125 H125       31.5884    2.4832   -7.7093 H         1 UNK         0.3205 
    126 H126       32.7872    2.7136   -5.9170 H         1 UNK         0.0754 
    127 H127       35.0216    3.7654   -5.9314 H         1 UNK         0.0769 
    128 H128       33.9493    4.5957   -7.0474 H         1 UNK         0.0769 
    129 H129       35.1838    3.4959   -7.6586 H         1 UNK         0.0769 
    130 H130       34.5737    0.8400   -8.3307 H         1 UNK         0.2981 
    131 H131       35.4993   -1.1559   -8.3509 H         1 UNK         0.0541 
    132 H132       36.9404    1.0084   -6.6365 H         1 UNK         0.3459 
    133 H133       38.1725    0.0525   -5.8489 H         1 UNK         0.3459 
    134 H134       34.6619   -2.9800   -6.8910 H         1 UNK         0.0612 
    135 H135       33.9359   -1.8245   -5.8149 H         1 UNK         0.0612 
    136 H136       30.5981   -1.0290   -7.4759 H         1 UNK         0.0624 
    137 H137       31.8076   -0.3692   -6.4168 H         1 UNK         0.0624 
@<TRIPOS>BOND
     1    1    2 1    
     2    1   72 1    
     3    1   73 1    
     4    1   74 1    
     5    2    3 2    
     6    2    4 am   BACKBONE|DICT|INTERRES
     7    4    5 1    
     8    4   75 1    
     9    5    6 1    
    10    5   35 1    
    11    5   76 1    
    12    6    7 1    
    13    6   77 1    
    14    6   78 1    
    15    7    8 1    
    16    8    9 1    
    17    8   79 1    
    18    8   80 1    
    19    9   10 ar   
    20    9   14 ar   
    21   10   11 ar   
    22   10   81 1    
    23   11   12 ar   
    24   11   71 1    
    25   12   13 ar   
    26   12   82 1    
    27   13   14 ar   
    28   13   15 1    
    29   14   83 1    
    30   15   16 1    
    31   15   84 1    
    32   15   85 1    
    33   16   17 1    
    34   17   18 1    
    35   17   86 1    
    36   17   87 1    
    37   18   19 1    
    38   18   37 1    
    39   18   88 1    
    40   19   20 am   BACKBONE|DICT|INTERRES
    41   19   89 1    
    42   20   21 2    
    43   20   22 1    
    44   22   23 1    
    45   22   24 1    
    46   22   90 1    
    47   23   91 1    
    48   23   92 1    
    49   23   93 1    
    50   24   25 am   BACKBONE|DICT|INTERRES
    51   24   94 1    
    52   25   26 2    
    53   25   27 1    
    54   27   28 1    
    55   27   29 1    
    56   27   95 1    
    57   28   96 1    
    58   28   97 1    
    59   28   98 1    
    60   29   30 am   BACKBONE|DICT|INTERRES
    61   29   99 1    
    62   30   31 2    
    63   30   32 1    
    64   32   33 1    
    65   32   34 1    
    66   32  100 1    
    67   33  101 1    
    68   33  102 1    
    69   33  103 1    
    70   34   35 am   BACKBONE|DICT|INTERRES
    71   34  104 1    
    72   35   36 2    
    73   37   38 2    
    74   37   39 am   BACKBONE|DICT|INTERRES
    75   39   40 1    
    76   39  105 1    
    77   40   41 1    
    78   40   42 1    
    79   40  106 1    
    80   41  107 1    
    81   41  108 1    
    82   41  109 1    
    83   42   43 2    
    84   42   44 am   BACKBONE|DICT|INTERRES
    85   44   45 1    
    86   44  110 1    
    87   45   46 1    
    88   45   47 1    
    89   45  111 1    
    90   46  112 1    
    91   46  113 1    
    92   46  114 1    
    93   47   48 2    
    94   47   49 am   BACKBONE|DICT|INTERRES
    95   49   50 1    
    96   49  115 1    
    97   50   51 1    
    98   50   52 1    
    99   50  116 1    
   100   51  117 1    
   101   51  118 1    
   102   51  119 1    
   103   52   53 2    
   104   52   54 am   BACKBONE|DICT|INTERRES
   105   54   55 1    
   106   54  120 1    
   107   55   56 1    
   108   55   57 1    
   109   55  121 1    
   110   56  122 1    
   111   56  123 1    
   112   56  124 1    
   113   57   58 2    
   114   57   59 am   BACKBONE|DICT|INTERRES
   115   59   60 1    
   116   59  125 1    
   117   60   61 1    
   118   60   62 1    
   119   60  126 1    
   120   61  127 1    
   121   61  128 1    
   122   61  129 1    
   123   62   63 2    
   124   62   64 am   BACKBONE|DICT|INTERRES
   125   64   65 1    
   126   64  130 1    
   127   65   66 1    
   128   65   69 1    
   129   65  131 1    
   130   66   67 am   BACKBONE|DICT|INTERRES
   131   66   68 2    
   132   67  132 1    
   133   67  133 1    
   134   69   70 1    
   135   69  134 1    
   136   69  135 1    
   137   70   71 1    
   138   71  136 1    
   139   71  137 1    
@<TRIPOS>SUBSTRUCTURE
     1 UNK         1 GROUP             0       ****    0 ROOT    
