@<TRIPOS>MOLECULE
3R137
137   139    1
SMALL
USER_CHARGES


@<TRIPOS>ATOM
      1 CA         24.9159   -6.1576   -5.2923 C.3       0 UNK        -0.2020 
      2 C          25.0271   -5.4898   -3.9305 C.2       0 UNK         0.4855 
      3 O          24.0364   -4.9633   -3.4230 O.2       0 UNK        -0.5197 
      4 N          26.2310   -5.4964   -3.3450 N.am      1 UNK        -0.4892 
      5 CA         26.5927   -4.8753   -2.0650 C.3       1 UNK         0.0835 
      6 C6         28.0615   -5.1860   -1.6543 C.3       12 UNK        -0.0855 
      7 S7         29.2637   -5.2325   -3.0368 S.3       12 UNK        -0.2931 
      8 C8         30.7468   -4.4791   -2.3034 C.3       12 UNK         0.0378 
      9 C9         30.8359   -2.9831   -2.5720 C.ar      12 UNK        -0.0802 
     10 C10        31.3817   -2.5213   -3.7743 C.ar      12 UNK        -0.0944 
     11 C11        31.5709   -1.1529   -3.9898 C.ar      12 UNK        -0.0787 
     12 C12        31.2041   -0.2447   -2.9937 C.ar      12 UNK        -0.0862 
     13 C13        30.6084   -0.6877   -1.8079 C.ar      12 UNK        -0.0733 
     14 C14        30.4315   -2.0607   -1.6019 C.ar      12 UNK        -0.0832 
     15 C15        30.1733    0.3079   -0.7354 C.3       12 UNK         0.0240 
     16 S16        29.1521    1.6790   -1.3810 S.3       12 UNK        -0.2522 
     17 C17        27.8120    0.7814   -2.2306 C.3       12 UNK        -0.0967 
     18 CA         27.9603    0.8503   -3.7748 C.3       5 UNK         0.0660 
     19 N          27.5492   -0.3977   -4.4194 N.am      5 UNK        -0.4015 
     20 C          27.7092   -0.6928   -5.7168 C.2       4 UNK         0.4946 
     21 O          28.2990    0.0276   -6.5209 O.2       4 UNK        -0.5353 
     22 CA         27.0410   -1.9837   -6.2159 C.3       4 UNK         0.0277 
     23 CB         27.9307   -3.2075   -5.9523 C.3       4 UNK        -0.1981 
     24 N          25.7261   -2.1803   -5.6006 N.am      4 UNK        -0.4209 
     25 C          24.6534   -1.4168   -5.8575 C.2       3 UNK         0.4942 
     26 O          24.6384   -0.5234   -6.7031 O.2       3 UNK        -0.5208 
     27 CA         23.4047   -1.6519   -4.9917 C.3       3 UNK         0.0250 
     28 CB         22.5167   -2.7513   -5.5943 C.3       3 UNK        -0.1990 
     29 N          23.7426   -1.9793   -3.6032 N.am      3 UNK        -0.4232 
     30 C          24.2578   -1.0920   -2.7374 C.2       2 UNK         0.4993 
     31 O          24.4575    0.0897   -3.0146 O.2       2 UNK        -0.5286 
     32 CA         24.6738   -1.6089   -1.3489 C.3       2 UNK         0.0209 
     33 CB         23.4945   -1.5248   -0.3675 C.3       2 UNK        -0.1931 
     34 N          25.2008   -2.9764   -1.3678 N.am      2 UNK        -0.4546 
     35 C          26.2797   -3.3656   -2.0614 C.2       1 UNK         0.5154 
     36 O          26.9674   -2.5920   -2.7272 O.2       1 UNK        -0.5181 
     37 C          27.2451    2.0805   -4.3697 C.2       5 UNK         0.5014 
     38 O          27.9038    3.0783   -4.6652 O.2       5 UNK        -0.5248 
     39 N          25.9211    1.9771   -4.5624 N.am      6 UNK        -0.4434 
     40 CA         25.0872    2.9977   -5.2020 C.3       6 UNK         0.0363 
     41 CB         23.6038    2.6259   -5.0495 C.3       6 UNK        -0.1936 
     42 C          25.4410    3.2249   -6.6817 C.2       6 UNK         0.5081 
     43 O          25.4637    4.3744   -7.1231 O.2       6 UNK        -0.5248 
     44 N          25.7218    2.1388   -7.4173 N.am      7 UNK        -0.4718 
     45 CA         26.1898    2.1821   -8.8059 C.3       7 UNK         0.0273 
     46 CB         26.1275    0.7730   -9.4166 C.3       7 UNK        -0.1935 
     47 C          27.6087    2.7601   -8.9407 C.2       7 UNK         0.5018 
     48 O          27.8898    3.4403   -9.9283 O.2       7 UNK        -0.5186 
     49 N          28.4764    2.4601   -7.9627 N.am      8 UNK        -0.4240 
     50 CA         29.8789    2.8648   -7.7931 C.3       8 UNK         0.0235 
     51 CB         30.0259    4.3960   -7.7172 C.3       8 UNK        -0.2000 
     52 C          30.8421    2.2587   -8.8271 C.2       8 UNK         0.4941 
     53 O          31.9071    1.7756   -8.4436 O.2       8 UNK        -0.5273 
     54 N          30.4390    2.2424  -10.1048 N.am      9 UNK        -0.4262 
     55 CA         31.1727    1.7089  -11.2597 C.3       9 UNK         0.0264 
     56 CB         30.3739    2.0205  -12.5362 C.3       9 UNK        -0.1955 
     57 C          31.5078    0.2054  -11.1862 C.2       9 UNK         0.5031 
     58 O          32.3309   -0.2651  -11.9727 O.2       9 UNK        -0.5390 
     59 N          30.8848   -0.5183  -10.2460 N.am      10 UNK        -0.4204 
     60 CA         31.2209   -1.8926   -9.8740 C.3       10 UNK         0.0237 
     61 CB         30.1543   -2.4156   -8.8997 C.3       10 UNK        -0.1985 
     62 C          32.6273   -2.0256   -9.2560 C.2       10 UNK         0.4970 
     63 O          33.2478   -3.0781   -9.4111 O.2       10 UNK        -0.4914 
     64 N          33.1041   -0.9698   -8.5831 N.am      11 UNK        -0.4285 
     65 CA         34.4741   -0.8537   -8.0739 C.3       11 UNK         0.1007 
     66 C          35.3934   -0.2398   -9.1617 C.2       11 UNK         0.5703 
     67 N          36.5938   -0.7760   -9.3358 N.am      11 UNK        -0.7361 
     68 O          35.0478    0.7397   -9.8196 O.2       11 UNK        -0.4986 
     69 C69        34.5145   -0.0151   -6.7704 C.3       12 UNK        -0.0947 
     70 S70        33.9754   -0.9690   -5.3147 S.3       12 UNK        -0.2240 
     71 C71        32.1847   -0.6558   -5.2899 C.3       12 UNK         0.0194 
     72 H72        25.8022   -6.7459   -5.5294 H         1 UNK         0.0906 
     73 H73        24.0538   -6.8236   -5.3147 H         1 UNK         0.0906 
     74 H74        24.7883   -5.4070   -6.0716 H         1 UNK         0.0906 
     75 H75        27.0161   -5.9116   -3.8288 H         1 UNK         0.3140 
     76 H76        25.9523   -5.3349   -1.3090 H         1 UNK         0.1085 
     77 H77        28.4047   -4.4928   -0.8839 H         1 UNK         0.0836 
     78 H78        28.0931   -6.1703   -1.1846 H         1 UNK         0.0836 
     79 H79        31.6245   -4.9693   -2.7275 H         1 UNK         0.0731 
     80 H80        30.7837   -4.6850   -1.2326 H         1 UNK         0.0731 
     81 H81        31.6877   -3.2293   -4.5325 H         1 UNK         0.1312 
     82 H82        31.3614    0.8139   -3.1491 H         1 UNK         0.1406 
     83 H83        29.9971   -2.4151   -0.6772 H         1 UNK         0.1631 
     84 H84        31.0626    0.7253   -0.2616 H         1 UNK         0.0717 
     85 H85        29.6120   -0.1958    0.0531 H         1 UNK         0.0717 
     86 H86        27.8326   -0.2533   -1.8873 H         1 UNK         0.0934 
     87 H87        26.8496    1.1722   -1.8941 H         1 UNK         0.0934 
     88 H88        29.0157    0.9633   -4.0251 H         1 UNK         0.0739 
     89 H89        27.1455   -1.1098   -3.8150 H         1 UNK         0.3093 
     90 H90        26.9022   -1.8917   -7.2951 H         1 UNK         0.0818 
     91 H91        28.1039   -3.3569   -4.8886 H         1 UNK         0.0819 
     92 H92        27.4876   -4.1188   -6.3534 H         1 UNK         0.0819 
     93 H93        28.9098   -3.0906   -6.4144 H         1 UNK         0.0819 
     94 H94        25.6735   -2.8476   -4.8450 H         1 UNK         0.3041 
     95 H95        22.8285   -0.7241   -4.9874 H         1 UNK         0.0784 
     96 H96        22.2161   -2.4933   -6.6108 H         1 UNK         0.0793 
     97 H97        23.0299   -3.7111   -5.6418 H         1 UNK         0.0793 
     98 H98        21.6053   -2.8878   -5.0121 H         1 UNK         0.0793 
     99 H99        23.6510   -2.9511   -3.3214 H         1 UNK         0.3024 
    100 H100       25.4685   -0.9539   -0.9853 H         1 UNK         0.1171 
    101 H101       23.7986   -1.7972    0.6434 H         1 UNK         0.0786 
    102 H102       23.0976   -0.5094   -0.3215 H         1 UNK         0.0786 
    103 H103       22.6753   -2.1821   -0.6617 H         1 UNK         0.0786 
    104 H104       24.6557   -3.6762   -0.8842 H         1 UNK         0.2977 
    105 H105       25.4381    1.1554   -4.2046 H         1 UNK         0.3127 
    106 H106       25.2568    3.9384   -4.6740 H         1 UNK         0.0770 
    107 H107       23.3714    1.6829   -5.5448 H         1 UNK         0.0814 
    108 H108       22.9628    3.3916   -5.4882 H         1 UNK         0.0814 
    109 H109       23.3242    2.5304   -4.0002 H         1 UNK         0.0814 
    110 H110       25.5987    1.2196   -7.0025 H         1 UNK         0.2983 
    111 H111       25.5153    2.8300   -9.3699 H         1 UNK         0.0947 
    112 H112       26.4452    0.7842  -10.4602 H         1 UNK         0.0806 
    113 H113       25.1130    0.3748   -9.3907 H         1 UNK         0.0806 
    114 H114       26.7737    0.0734   -8.8856 H         1 UNK         0.0806 
    115 H115       28.1599    1.7882   -7.2670 H         1 UNK         0.3000 
    116 H116       30.1738    2.4614   -6.8226 H         1 UNK         0.0850 
    117 H117       31.0548    4.6759   -7.4875 H         1 UNK         0.0810 
    118 H118       29.3931    4.8121   -6.9328 H         1 UNK         0.0810 
    119 H119       29.7600    4.8818   -8.6564 H         1 UNK         0.0810 
    120 H120       29.5384    2.6768  -10.2966 H         1 UNK         0.3040 
    121 H121       32.1251    2.2403  -11.3102 H         1 UNK         0.0766 
    122 H122       30.2162    3.0928  -12.6544 H         1 UNK         0.0812 
    123 H123       29.3964    1.5365  -12.5269 H         1 UNK         0.0812 
    124 H124       30.9022    1.6732  -13.4253 H         1 UNK         0.0812 
    125 H125       30.2157   -0.0412   -9.6601 H         1 UNK         0.3205 
    126 H126       31.1967   -2.5041  -10.7784 H         1 UNK         0.0754 
    127 H127       30.3738   -3.4381   -8.5889 H         1 UNK         0.0769 
    128 H128       29.1648   -2.4218   -9.3574 H         1 UNK         0.0769 
    129 H129       30.1025   -1.8016   -7.9996 H         1 UNK         0.0769 
    130 H130       32.5663   -0.1089   -8.5614 H         1 UNK         0.2981 
    131 H131       34.8539   -1.8514   -7.8433 H         1 UNK         0.0541 
    132 H132       36.8944   -1.5709   -8.7930 H         1 UNK         0.3459 
    133 H133       37.2108   -0.3800  -10.0277 H         1 UNK         0.3459 
    134 H134       33.9248    0.8983   -6.8629 H         1 UNK         0.0612 
    135 H135       35.5347    0.3097   -6.5566 H         1 UNK         0.0612 
    136 H136       31.9961    0.4111   -5.4208 H         1 UNK         0.0624 
    137 H137       31.7124   -1.1609   -6.1329 H         1 UNK         0.0624 
@<TRIPOS>BOND
     1    1    2 1    
     2    1   72 1    
     3    1   73 1    
     4    1   74 1    
     5    2    3 2    
     6    2    4 am   BACKBONE|DICT|INTERRES
     7    4    5 1    
     8    4   75 1    
     9    5    6 1    
    10    5   35 1    
    11    5   76 1    
    12    6    7 1    
    13    6   77 1    
    14    6   78 1    
    15    7    8 1    
    16    8    9 1    
    17    8   79 1    
    18    8   80 1    
    19    9   10 ar   
    20    9   14 ar   
    21   10   11 ar   
    22   10   81 1    
    23   11   12 ar   
    24   11   71 1    
    25   12   13 ar   
    26   12   82 1    
    27   13   14 ar   
    28   13   15 1    
    29   14   83 1    
    30   15   16 1    
    31   15   84 1    
    32   15   85 1    
    33   16   17 1    
    34   17   18 1    
    35   17   86 1    
    36   17   87 1    
    37   18   19 1    
    38   18   37 1    
    39   18   88 1    
    40   19   20 am   BACKBONE|DICT|INTERRES
    41   19   89 1    
    42   20   21 2    
    43   20   22 1    
    44   22   23 1    
    45   22   24 1    
    46   22   90 1    
    47   23   91 1    
    48   23   92 1    
    49   23   93 1    
    50   24   25 am   BACKBONE|DICT|INTERRES
    51   24   94 1    
    52   25   26 2    
    53   25   27 1    
    54   27   28 1    
    55   27   29 1    
    56   27   95 1    
    57   28   96 1    
    58   28   97 1    
    59   28   98 1    
    60   29   30 am   BACKBONE|DICT|INTERRES
    61   29   99 1    
    62   30   31 2    
    63   30   32 1    
    64   32   33 1    
    65   32   34 1    
    66   32  100 1    
    67   33  101 1    
    68   33  102 1    
    69   33  103 1    
    70   34   35 am   BACKBONE|DICT|INTERRES
    71   34  104 1    
    72   35   36 2    
    73   37   38 2    
    74   37   39 am   BACKBONE|DICT|INTERRES
    75   39   40 1    
    76   39  105 1    
    77   40   41 1    
    78   40   42 1    
    79   40  106 1    
    80   41  107 1    
    81   41  108 1    
    82   41  109 1    
    83   42   43 2    
    84   42   44 am   BACKBONE|DICT|INTERRES
    85   44   45 1    
    86   44  110 1    
    87   45   46 1    
    88   45   47 1    
    89   45  111 1    
    90   46  112 1    
    91   46  113 1    
    92   46  114 1    
    93   47   48 2    
    94   47   49 am   BACKBONE|DICT|INTERRES
    95   49   50 1    
    96   49  115 1    
    97   50   51 1    
    98   50   52 1    
    99   50  116 1    
   100   51  117 1    
   101   51  118 1    
   102   51  119 1    
   103   52   53 2    
   104   52   54 am   BACKBONE|DICT|INTERRES
   105   54   55 1    
   106   54  120 1    
   107   55   56 1    
   108   55   57 1    
   109   55  121 1    
   110   56  122 1    
   111   56  123 1    
   112   56  124 1    
   113   57   58 2    
   114   57   59 am   BACKBONE|DICT|INTERRES
   115   59   60 1    
   116   59  125 1    
   117   60   61 1    
   118   60   62 1    
   119   60  126 1    
   120   61  127 1    
   121   61  128 1    
   122   61  129 1    
   123   62   63 2    
   124   62   64 am   BACKBONE|DICT|INTERRES
   125   64   65 1    
   126   64  130 1    
   127   65   66 1    
   128   65   69 1    
   129   65  131 1    
   130   66   67 am   BACKBONE|DICT|INTERRES
   131   66   68 2    
   132   67  132 1    
   133   67  133 1    
   134   69   70 1    
   135   69  134 1    
   136   69  135 1    
   137   70   71 1    
   138   71  136 1    
   139   71  137 1    
@<TRIPOS>SUBSTRUCTURE
     1 UNK         1 GROUP             0       ****    0 ROOT    
