@<TRIPOS>MOLECULE
3R137
137   139    1
SMALL
USER_CHARGES


@<TRIPOS>ATOM
      1 CA         29.8922   -0.4170   -3.1915 C.3       0 UNK        -0.2020 
      2 C          30.5240   -0.4572   -1.8033 C.2       0 UNK         0.4855 
      3 O          31.3679    0.3846   -1.5036 O.2       0 UNK        -0.5197 
      4 N          30.1808   -1.4149   -0.9311 N.am      1 UNK        -0.4892 
      5 CA         29.2159   -2.5002   -1.1356 C.3       1 UNK         0.0835 
      6 C6         29.3900   -3.5955   -0.0501 C.3       12 UNK        -0.0855 
      7 S7         28.6197   -5.1891   -0.5061 S.3       12 UNK        -0.2931 
      8 C8         30.0320   -6.1132   -1.1913 C.3       12 UNK         0.0378 
      9 C9         30.6119   -5.4223   -2.4164 C.ar      12 UNK        -0.0802 
     10 C10        31.8482   -4.7775   -2.3428 C.ar      12 UNK        -0.0944 
     11 C11        32.3869   -4.1236   -3.4546 C.ar      12 UNK        -0.0787 
     12 C12        31.6554   -4.1074   -4.6534 C.ar      12 UNK        -0.0862 
     13 C13        30.4174   -4.7571   -4.7424 C.ar      12 UNK        -0.0733 
     14 C14        29.9089   -5.4215   -3.6224 C.ar      12 UNK        -0.0832 
     15 C15        29.6447   -4.7916   -6.0567 C.3       12 UNK         0.0240 
     16 S16        27.9549   -4.1244   -5.8907 S.3       12 UNK        -0.2522 
     17 C17        28.2703   -2.3327   -5.8606 C.3       12 UNK        -0.0967 
     18 CA         27.4346   -1.5796   -6.9234 C.3       5 UNK         0.0660 
     19 N          25.9914   -1.6714   -6.6848 N.am      5 UNK        -0.4015 
     20 C          25.0465   -1.2934   -7.5586 C.2       4 UNK         0.4946 
     21 O          25.2858   -0.8818   -8.6934 O.2       4 UNK        -0.5353 
     22 CA         23.5880   -1.3451   -7.0715 C.3       4 UNK         0.0277 
     23 CB         23.0198   -2.7662   -7.2143 C.3       4 UNK        -0.1981 
     24 N          23.4346   -0.8898   -5.6872 N.am      4 UNK        -0.4209 
     25 C          23.6782    0.3605   -5.2658 C.2       3 UNK         0.4942 
     26 O          23.9917    1.2848   -6.0128 O.2       3 UNK        -0.5208 
     27 CA         23.6152    0.6126   -3.7487 C.3       3 UNK         0.0250 
     28 CB         22.1908    1.0044   -3.3255 C.3       3 UNK        -0.1990 
     29 N          24.0721   -0.5292   -2.9487 N.am      3 UNK        -0.4232 
     30 C          25.2967   -1.0687   -3.0218 C.2       2 UNK         0.4993 
     31 O          26.1868   -0.6475   -3.7661 O.2       2 UNK        -0.5286 
     32 CA         25.5187   -2.3434   -2.1930 C.3       2 UNK         0.0209 
     33 CB         24.8620   -3.5485   -2.8894 C.3       2 UNK        -0.1931 
     34 N          26.9356   -2.6464   -1.9993 N.am      2 UNK        -0.4546 
     35 C          27.7639   -1.9800   -1.1868 C.2       1 UNK         0.5154 
     36 O          27.4220   -1.0267   -0.4820 O.2       1 UNK        -0.5181 
     37 C          27.8692   -0.1087   -7.0210 C.2       5 UNK         0.5014 
     38 O          28.5587    0.2502   -7.9751 O.2       5 UNK        -0.5248 
     39 N          27.4132    0.7217   -6.0708 N.am      6 UNK        -0.4434 
     40 CA         27.6589    2.1654   -6.0491 C.3       6 UNK         0.0363 
     41 CB         27.0770    2.7728   -4.7638 C.3       6 UNK        -0.1936 
     42 C          27.1204    2.8870   -7.2988 C.2       6 UNK         0.5081 
     43 O          27.8401    3.6995   -7.8786 O.2       6 UNK        -0.5248 
     44 N          25.8963    2.5435   -7.7268 N.am      7 UNK        -0.4718 
     45 CA         25.2666    3.0437   -8.9546 C.3       7 UNK         0.0273 
     46 CB         23.7997    2.5886   -9.0052 C.3       7 UNK        -0.1935 
     47 C          26.0059    2.6209  -10.2365 C.2       7 UNK         0.5018 
     48 O          26.0907    3.4155  -11.1733 O.2       7 UNK        -0.5186 
     49 N          26.5546    1.3982  -10.2456 N.am      8 UNK        -0.4240 
     50 CA         27.4091    0.8703  -11.3141 C.3       8 UNK         0.0235 
     51 CB         27.4126   -0.6662  -11.2346 C.3       8 UNK        -0.2000 
     52 C          28.8519    1.4158  -11.2811 C.2       8 UNK         0.4941 
     53 O          29.6169    1.1151  -12.1987 O.2       8 UNK        -0.5273 
     54 N          29.2045    2.1807  -10.2358 N.am      9 UNK        -0.4262 
     55 CA         30.5300    2.7265   -9.9249 C.3       9 UNK         0.0264 
     56 CB         30.9929    3.7284  -11.0046 C.3       9 UNK        -0.1955 
     57 C          31.5787    1.6393   -9.6138 C.2       9 UNK         0.5031 
     58 O          32.7661    1.8413   -9.8781 O.2       9 UNK        -0.5390 
     59 N          31.1322    0.5166   -9.0370 N.am      10 UNK        -0.4204 
     60 CA         31.9817   -0.5426   -8.5054 C.3       10 UNK         0.0237 
     61 CB         31.3048   -1.9050   -8.7352 C.3       10 UNK        -0.1985 
     62 C          32.1818   -0.2681   -7.0118 C.2       10 UNK         0.4970 
     63 O          31.1972   -0.2200   -6.2736 O.2       10 UNK        -0.4914 
     64 N          33.4410   -0.0871   -6.5997 N.am      11 UNK        -0.4285 
     65 CA         33.8393    0.2680   -5.2278 C.3       11 UNK         0.1007 
     66 C          33.3304    1.6870   -4.8280 C.2       11 UNK         0.5703 
     67 N          32.8283    1.9056   -3.6195 N.am      11 UNK        -0.7361 
     68 O          33.4455    2.6281   -5.6112 O.2       11 UNK        -0.4986 
     69 C69        33.5444   -0.8617   -4.1973 C.3       12 UNK        -0.0947 
     70 S70        34.3502   -2.4299   -4.6542 S.3       12 UNK        -0.2240 
     71 C71        33.7827   -3.5124   -3.3025 C.3       12 UNK         0.0194 
     72 H72        30.3242    0.3884   -3.7849 H         1 UNK         0.0906 
     73 H73        30.0728   -1.3484   -3.7259 H         1 UNK         0.0906 
     74 H74        28.8206   -0.2326   -3.1360 H         1 UNK         0.0906 
     75 H75        30.5941   -1.3805   -0.0105 H         1 UNK         0.3140 
     76 H76        29.4467   -2.9432   -2.1054 H         1 UNK         0.1085 
     77 H77        30.4498   -3.7743    0.1389 H         1 UNK         0.0836 
     78 H78        28.9763   -3.2661    0.9054 H         1 UNK         0.0836 
     79 H79        30.7906   -6.2412   -0.4174 H         1 UNK         0.0731 
     80 H80        29.7015   -7.1165   -1.4641 H         1 UNK         0.0731 
     81 H81        32.4022   -4.7924   -1.4138 H         1 UNK         0.1312 
     82 H82        32.0533   -3.6150   -5.5291 H         1 UNK         0.1406 
     83 H83        28.9560   -5.9299   -3.6863 H         1 UNK         0.1631 
     84 H84        30.1749   -4.2539   -6.8441 H         1 UNK         0.0717 
     85 H85        29.5761   -5.8280   -6.3899 H         1 UNK         0.0717 
     86 H86        28.0511   -1.9693   -4.8580 H         1 UNK         0.0934 
     87 H87        29.3358   -2.1544   -6.0163 H         1 UNK         0.0934 
     88 H88        27.6361   -2.0365   -7.8950 H         1 UNK         0.0739 
     89 H89        25.7141   -1.9535   -5.7569 H         1 UNK         0.3093 
     90 H90        23.0041   -0.6776   -7.7089 H         1 UNK         0.0818 
     91 H91        21.9618   -2.7986   -6.9536 H         1 UNK         0.0819 
     92 H92        23.1084   -3.1182   -8.2432 H         1 UNK         0.0819 
     93 H93        23.5452   -3.4810   -6.5795 H         1 UNK         0.0819 
     94 H94        23.1622   -1.5806   -5.0039 H         1 UNK         0.3041 
     95 H95        24.2784    1.4513   -3.5287 H         1 UNK         0.0784 
     96 H96        21.8391    1.8663   -3.8947 H         1 UNK         0.0793 
     97 H97        21.4804    0.1933   -3.4904 H         1 UNK         0.0793 
     98 H98        22.1507    1.2780   -2.2710 H         1 UNK         0.0793 
     99 H99        23.3946   -0.9381   -2.3205 H         1 UNK         0.3024 
    100 H100       25.0608   -2.2014   -1.2112 H         1 UNK         0.1171 
    101 H101       24.9893   -4.4597   -2.3042 H         1 UNK         0.0786 
    102 H102       23.7890   -3.4003   -3.0166 H         1 UNK         0.0786 
    103 H103       25.2877   -3.7266   -3.8781 H         1 UNK         0.0786 
    104 H104       27.3004   -3.4234   -2.5308 H         1 UNK         0.2977 
    105 H105       26.8669    0.3323   -5.3060 H         1 UNK         0.3127 
    106 H106       28.7421    2.3046   -6.0294 H         1 UNK         0.0770 
    107 H107       25.9916    2.6819   -4.7300 H         1 UNK         0.0814 
    108 H108       27.3167    3.8344   -4.6934 H         1 UNK         0.0814 
    109 H109       27.4825    2.2876   -3.8756 H         1 UNK         0.0814 
    110 H110       25.3375    1.9126   -7.1553 H         1 UNK         0.2983 
    111 H111       25.2841    4.1349   -8.9131 H         1 UNK         0.0947 
    112 H112       23.3047    2.9598   -9.9036 H         1 UNK         0.0806 
    113 H113       23.2393    2.9628   -8.1484 H         1 UNK         0.0806 
    114 H114       23.7160    1.5012   -9.0100 H         1 UNK         0.0806 
    115 H115       26.3914    0.7854   -9.4532 H         1 UNK         0.3000 
    116 H116       26.9783    1.1592  -12.2750 H         1 UNK         0.0850 
    117 H117       26.4026   -1.0696  -11.3093 H         1 UNK         0.0810 
    118 H118       27.8448   -1.0195  -10.2979 H         1 UNK         0.0810 
    119 H119       27.9956   -1.1014  -12.0473 H         1 UNK         0.0810 
    120 H120       28.5021    2.3479   -9.5246 H         1 UNK         0.3040 
    121 H121       30.4054    3.2860   -8.9967 H         1 UNK         0.0766 
    122 H122       30.2326    4.4860  -11.1944 H         1 UNK         0.0812 
    123 H123       31.2180    3.2327  -11.9492 H         1 UNK         0.0812 
    124 H124       31.8974    4.2504  -10.6903 H         1 UNK         0.0812 
    125 H125       30.1498    0.4662   -8.7617 H         1 UNK         0.3205 
    126 H126       32.9477   -0.5500   -9.0147 H         1 UNK         0.0754 
    127 H127       30.3214   -1.9546   -8.2677 H         1 UNK         0.0769 
    128 H128       31.9068   -2.7144   -8.3203 H         1 UNK         0.0769 
    129 H129       31.1760   -2.1055   -9.7989 H         1 UNK         0.0769 
    130 H130       34.1876   -0.1095   -7.2784 H         1 UNK         0.2981 
    131 H131       34.9235    0.3790   -5.2655 H         1 UNK         0.0541 
    132 H132       32.5341    2.8399   -3.3854 H         1 UNK         0.3459 
    133 H133       32.6683    1.1592   -2.9550 H         1 UNK         0.3459 
    134 H134       32.4741   -1.0377   -4.1040 H         1 UNK         0.0612 
    135 H135       33.9046   -0.5807   -3.2065 H         1 UNK         0.0612 
    136 H136       33.8394   -2.9578   -2.3644 H         1 UNK         0.0624 
    137 H137       34.4976   -4.3316   -3.2158 H         1 UNK         0.0624 
@<TRIPOS>BOND
     1    1    2 1    
     2    1   72 1    
     3    1   73 1    
     4    1   74 1    
     5    2    3 2    
     6    2    4 am   BACKBONE|DICT|INTERRES
     7    4    5 1    
     8    4   75 1    
     9    5    6 1    
    10    5   35 1    
    11    5   76 1    
    12    6    7 1    
    13    6   77 1    
    14    6   78 1    
    15    7    8 1    
    16    8    9 1    
    17    8   79 1    
    18    8   80 1    
    19    9   10 ar   
    20    9   14 ar   
    21   10   11 ar   
    22   10   81 1    
    23   11   12 ar   
    24   11   71 1    
    25   12   13 ar   
    26   12   82 1    
    27   13   14 ar   
    28   13   15 1    
    29   14   83 1    
    30   15   16 1    
    31   15   84 1    
    32   15   85 1    
    33   16   17 1    
    34   17   18 1    
    35   17   86 1    
    36   17   87 1    
    37   18   19 1    
    38   18   37 1    
    39   18   88 1    
    40   19   20 am   BACKBONE|DICT|INTERRES
    41   19   89 1    
    42   20   21 2    
    43   20   22 1    
    44   22   23 1    
    45   22   24 1    
    46   22   90 1    
    47   23   91 1    
    48   23   92 1    
    49   23   93 1    
    50   24   25 am   BACKBONE|DICT|INTERRES
    51   24   94 1    
    52   25   26 2    
    53   25   27 1    
    54   27   28 1    
    55   27   29 1    
    56   27   95 1    
    57   28   96 1    
    58   28   97 1    
    59   28   98 1    
    60   29   30 am   BACKBONE|DICT|INTERRES
    61   29   99 1    
    62   30   31 2    
    63   30   32 1    
    64   32   33 1    
    65   32   34 1    
    66   32  100 1    
    67   33  101 1    
    68   33  102 1    
    69   33  103 1    
    70   34   35 am   BACKBONE|DICT|INTERRES
    71   34  104 1    
    72   35   36 2    
    73   37   38 2    
    74   37   39 am   BACKBONE|DICT|INTERRES
    75   39   40 1    
    76   39  105 1    
    77   40   41 1    
    78   40   42 1    
    79   40  106 1    
    80   41  107 1    
    81   41  108 1    
    82   41  109 1    
    83   42   43 2    
    84   42   44 am   BACKBONE|DICT|INTERRES
    85   44   45 1    
    86   44  110 1    
    87   45   46 1    
    88   45   47 1    
    89   45  111 1    
    90   46  112 1    
    91   46  113 1    
    92   46  114 1    
    93   47   48 2    
    94   47   49 am   BACKBONE|DICT|INTERRES
    95   49   50 1    
    96   49  115 1    
    97   50   51 1    
    98   50   52 1    
    99   50  116 1    
   100   51  117 1    
   101   51  118 1    
   102   51  119 1    
   103   52   53 2    
   104   52   54 am   BACKBONE|DICT|INTERRES
   105   54   55 1    
   106   54  120 1    
   107   55   56 1    
   108   55   57 1    
   109   55  121 1    
   110   56  122 1    
   111   56  123 1    
   112   56  124 1    
   113   57   58 2    
   114   57   59 am   BACKBONE|DICT|INTERRES
   115   59   60 1    
   116   59  125 1    
   117   60   61 1    
   118   60   62 1    
   119   60  126 1    
   120   61  127 1    
   121   61  128 1    
   122   61  129 1    
   123   62   63 2    
   124   62   64 am   BACKBONE|DICT|INTERRES
   125   64   65 1    
   126   64  130 1    
   127   65   66 1    
   128   65   69 1    
   129   65  131 1    
   130   66   67 am   BACKBONE|DICT|INTERRES
   131   66   68 2    
   132   67  132 1    
   133   67  133 1    
   134   69   70 1    
   135   69  134 1    
   136   69  135 1    
   137   70   71 1    
   138   71  136 1    
   139   71  137 1    
@<TRIPOS>SUBSTRUCTURE
     1 UNK         1 GROUP             0       ****    0 ROOT    
