@<TRIPOS>MOLECULE
3R137
137   139    1
SMALL
USER_CHARGES


@<TRIPOS>ATOM
      1 CA         26.0839   -2.4613    2.3013 C.3       0 UNK        -0.2020 
      2 C          27.1513   -1.6277    1.6089 C.2       0 UNK         0.4855 
      3 O          27.5670   -0.5987    2.1418 O.2       0 UNK        -0.5197 
      4 N          27.5987   -2.0633    0.4244 N.am      1 UNK        -0.4892 
      5 CA         28.5962   -1.3748   -0.4062 C.3       1 UNK         0.0835 
      6 C6         29.2770   -2.3440   -1.4075 C.3       12 UNK        -0.0855 
      7 S7         28.1074   -3.3107   -2.4343 S.3       12 UNK        -0.2931 
      8 C8         29.1306   -4.7492   -2.8906 C.3       12 UNK         0.0378 
      9 C9         29.8352   -4.5584   -4.2285 C.ar      12 UNK        -0.0802 
     10 C10        30.9667   -3.7426   -4.3297 C.ar      12 UNK        -0.0944 
     11 C11        31.6235   -3.5833   -5.5549 C.ar      12 UNK        -0.0787 
     12 C12        31.1494   -4.2630   -6.6823 C.ar      12 UNK        -0.0862 
     13 C13        30.0374   -5.1057   -6.5892 C.ar      12 UNK        -0.0733 
     14 C14        29.3798   -5.2398   -5.3617 C.ar      12 UNK        -0.0832 
     15 C15        29.5934   -5.9279   -7.7946 C.3       12 UNK         0.0240 
     16 S16        28.6101   -4.9767   -8.9977 S.3       12 UNK        -0.2522 
     17 C17        27.0647   -4.6604   -8.0683 C.3       12 UNK        -0.0967 
     18 CA         26.5687   -3.1871   -8.0086 C.3       5 UNK         0.0660 
     19 N          25.4850   -3.0598   -7.0202 N.am      5 UNK        -0.4015 
     20 C          24.8450   -1.9426   -6.6438 C.2       4 UNK         0.4946 
     21 O          25.0997   -0.8184   -7.0866 O.2       4 UNK        -0.5353 
     22 CA         23.7730   -2.0993   -5.5536 C.3       4 UNK         0.0277 
     23 CB         24.1862   -3.0991   -4.4483 C.3       4 UNK        -0.1981 
     24 N          23.5386   -0.7842   -4.9682 N.am      4 UNK        -0.4209 
     25 C          22.4838   -0.4049   -4.2403 C.2       3 UNK         0.4942 
     26 O          21.5011   -1.1192   -4.0301 O.2       3 UNK        -0.5208 
     27 CA         22.5721    1.0097   -3.6277 C.3       3 UNK         0.0250 
     28 CB         21.4865    1.2730   -2.5618 C.3       3 UNK        -0.1990 
     29 N          23.9110    1.3139   -3.0930 N.am      3 UNK        -0.4232 
     30 C          24.5777    0.6220   -2.1548 C.2       2 UNK         0.4993 
     31 O          24.1278   -0.3615   -1.5589 O.2       2 UNK        -0.5286 
     32 CA         25.9896    1.1159   -1.8194 C.3       2 UNK         0.0209 
     33 CB         25.9411    2.3235   -0.8640 C.3       2 UNK        -0.1931 
     34 N          26.7177    0.0140   -1.1985 N.am      2 UNK        -0.4546 
     35 C          28.0462   -0.1097   -1.1046 C.2       1 UNK         0.5154 
     36 O          28.8358    0.7326   -1.5341 O.2       1 UNK        -0.5181 
     37 C          27.7045   -2.1499   -7.8332 C.2       5 UNK         0.5014 
     38 O          28.2409   -1.6754   -8.8355 O.2       5 UNK        -0.5248 
     39 N          27.9976   -1.7515   -6.5869 N.am      6 UNK        -0.4434 
     40 CA         28.9539   -0.6969   -6.2432 C.3       6 UNK         0.0363 
     41 CB         28.9759   -0.5049   -4.7235 C.3       6 UNK        -0.1936 
     42 C          28.7165    0.6554   -6.9371 C.2       6 UNK         0.5081 
     43 O          29.6880    1.3549   -7.2235 O.2       6 UNK        -0.5248 
     44 N          27.4507    0.9890   -7.2286 N.am      7 UNK        -0.4718 
     45 CA         27.0732    2.2004   -7.9608 C.3       7 UNK         0.0273 
     46 CB         25.5710    2.4642   -7.7706 C.3       7 UNK        -0.1935 
     47 C          27.4261    2.1325   -9.4577 C.2       7 UNK         0.5018 
     48 O          27.6685    3.1775  -10.0619 O.2       7 UNK        -0.5186 
     49 N          27.4576    0.9184  -10.0250 N.am      8 UNK        -0.4240 
     50 CA         27.8736    0.6591  -11.4039 C.3       8 UNK         0.0235 
     51 CB         27.1393   -0.5800  -11.9431 C.3       8 UNK        -0.2000 
     52 C          29.3957    0.4770  -11.4957 C.2       8 UNK         0.4941 
     53 O          30.0104    0.9975  -12.4271 O.2       8 UNK        -0.5273 
     54 N          29.9764   -0.2439  -10.5248 N.am      9 UNK        -0.4262 
     55 CA         31.4164   -0.4886  -10.4066 C.3       9 UNK         0.0264 
     56 CB         31.6583   -1.5953   -9.3666 C.3       9 UNK        -0.1955 
     57 C          32.2266    0.7706  -10.0487 C.2       9 UNK         0.5031 
     58 O          33.4011    0.8452  -10.4121 O.2       9 UNK        -0.5390 
     59 N          31.5931    1.7198   -9.3415 N.am      10 UNK        -0.4204 
     60 CA         32.1442    2.9839   -8.8377 C.3       10 UNK         0.0237 
     61 CB         32.5679    3.9120   -9.9964 C.3       10 UNK        -0.1985 
     62 C          33.2512    2.7799   -7.7840 C.2       10 UNK         0.4970 
     63 O          34.1691    3.5969   -7.6897 O.2       10 UNK        -0.4914 
     64 N          33.1388    1.6963   -7.0059 N.am      11 UNK        -0.4285 
     65 CA         34.0611    1.3329   -5.9199 C.3       11 UNK         0.1007 
     66 C          33.8277    2.1009   -4.5856 C.2       11 UNK         0.5703 
     67 N          32.7551    2.8706   -4.4382 N.am      11 UNK        -0.7361 
     68 O          34.6473    2.0115   -3.6743 O.2       11 UNK        -0.4986 
     69 C69        34.1217   -0.2049   -5.7188 C.3       12 UNK        -0.0947 
     70 S70        32.4989   -0.9590   -5.3705 S.3       12 UNK        -0.2240 
     71 C71        32.8715   -2.7154   -5.6495 C.3       12 UNK         0.0194 
     72 H72        26.4369   -2.7852    3.2800 H         1 UNK         0.0906 
     73 H73        25.1800   -1.8695    2.4434 H         1 UNK         0.0906 
     74 H74        25.8211   -3.3484    1.7252 H         1 UNK         0.0906 
     75 H75        27.2258   -2.9136    0.0234 H         1 UNK         0.3140 
     76 H76        29.3794   -1.0125    0.2642 H         1 UNK         0.1085 
     77 H77        29.8929   -3.0422   -0.8390 H         1 UNK         0.0836 
     78 H78        29.9740   -1.8073   -2.0528 H         1 UNK         0.0836 
     79 H79        29.8647   -4.9630   -2.1128 H         1 UNK         0.0731 
     80 H80        28.4821   -5.6257   -2.9309 H         1 UNK         0.0731 
     81 H81        31.3394   -3.2288   -3.4547 H         1 UNK         0.1312 
     82 H82        31.6620   -4.1620   -7.6290 H         1 UNK         0.1406 
     83 H83        28.5269   -5.8995   -5.2797 H         1 UNK         0.1631 
     84 H84        29.0217   -6.8009   -7.4757 H         1 UNK         0.0717 
     85 H85        30.4753   -6.3197   -8.3036 H         1 UNK         0.0717 
     86 H86        26.2859   -5.2831   -8.5117 H         1 UNK         0.0934 
     87 H87        27.1882   -5.0413   -7.0554 H         1 UNK         0.0934 
     88 H88        26.1184   -2.9595   -8.9770 H         1 UNK         0.0739 
     89 H89        25.1924   -3.9236   -6.5879 H         1 UNK         0.3093 
     90 H90        22.8550   -2.4415   -6.0353 H         1 UNK         0.0818 
     91 H91        25.1455   -2.8328   -4.0015 H         1 UNK         0.0819 
     92 H92        23.4509   -3.1293   -3.6439 H         1 UNK         0.0819 
     93 H93        24.2668   -4.1169   -4.8304 H         1 UNK         0.0819 
     94 H94        24.2599   -0.1082   -5.1830 H         1 UNK         0.3041 
     95 H95        22.4005    1.7062   -4.4500 H         1 UNK         0.0784 
     96 H96        20.4874    1.1623   -2.9851 H         1 UNK         0.0793 
     97 H97        21.5635    0.5778   -1.7251 H         1 UNK         0.0793 
     98 H98        21.5583    2.2853   -2.1641 H         1 UNK         0.0793 
     99 H99        24.3675    2.1154   -3.5069 H         1 UNK         0.3024 
    100 H100       26.4939    1.3959   -2.7472 H         1 UNK         0.1171 
    101 H101       25.4582    2.0678    0.0801 H         1 UNK         0.0786 
    102 H102       25.3845    3.1525   -1.3027 H         1 UNK         0.0786 
    103 H103       26.9413    2.6929   -0.6372 H         1 UNK         0.0786 
    104 H104       26.1246   -0.7337   -0.8587 H         1 UNK         0.2977 
    105 H105       27.5190   -2.1942   -5.8171 H         1 UNK         0.3127 
    106 H106       29.9325   -1.0526   -6.5609 H         1 UNK         0.0770 
    107 H107       29.3389   -1.4048   -4.2346 H         1 UNK         0.0814 
    108 H108       27.9882   -0.2722   -4.3248 H         1 UNK         0.0814 
    109 H109       29.6476    0.3051   -4.4346 H         1 UNK         0.0814 
    110 H110       26.7035    0.3328   -7.0169 H         1 UNK         0.2983 
    111 H111       27.6233    3.0419   -7.5333 H         1 UNK         0.0947 
    112 H112       25.2732    3.3914   -8.2622 H         1 UNK         0.0806 
    113 H113       25.3142    2.5598   -6.7157 H         1 UNK         0.0806 
    114 H114       24.9636    1.6627   -8.1929 H         1 UNK         0.0806 
    115 H115       27.3098    0.1065   -9.4370 H         1 UNK         0.3000 
    116 H116       27.5982    1.5108  -12.0302 H         1 UNK         0.0850 
    117 H117       27.4137   -0.7722  -12.9811 H         1 UNK         0.0810 
    118 H118       26.0583   -0.4427  -11.9141 H         1 UNK         0.0810 
    119 H119       27.3777   -1.4784  -11.3727 H         1 UNK         0.0810 
    120 H120       29.3766   -0.7002   -9.8378 H         1 UNK         0.3040 
    121 H121       31.7740   -0.8457  -11.3746 H         1 UNK         0.0766 
    122 H122       32.7179   -1.8459   -9.3009 H         1 UNK         0.0812 
    123 H123       31.1222   -2.5088   -9.6256 H         1 UNK         0.0812 
    124 H124       31.3352   -1.2907   -8.3720 H         1 UNK         0.0812 
    125 H125       30.6565    1.5112   -9.0101 H         1 UNK         0.3205 
    126 H126       31.3235    3.4748   -8.3125 H         1 UNK         0.0754 
    127 H127       32.8272    4.9051   -9.6275 H         1 UNK         0.0769 
    128 H128       31.7608    4.0364  -10.7186 H         1 UNK         0.0769 
    129 H129       33.4380    3.5266  -10.5285 H         1 UNK         0.0769 
    130 H130       32.3314    1.0994   -7.1152 H         1 UNK         0.2981 
    131 H131       35.0613    1.6328   -6.2382 H         1 UNK         0.0541 
    132 H132       32.0734    2.9423   -5.1757 H         1 UNK         0.3459 
    133 H133       32.6195    3.3672   -3.5722 H         1 UNK         0.3459 
    134 H134       34.8133   -0.4688   -4.9167 H         1 UNK         0.0612 
    135 H135       34.5246   -0.6651   -6.6224 H         1 UNK         0.0612 
    136 H136       33.6019   -3.0489   -4.9112 H         1 UNK         0.0624 
    137 H137       33.3421   -2.8283   -6.6274 H         1 UNK         0.0624 
@<TRIPOS>BOND
     1    1    2 1    
     2    1   72 1    
     3    1   73 1    
     4    1   74 1    
     5    2    3 2    
     6    2    4 am   BACKBONE|DICT|INTERRES
     7    4    5 1    
     8    4   75 1    
     9    5    6 1    
    10    5   35 1    
    11    5   76 1    
    12    6    7 1    
    13    6   77 1    
    14    6   78 1    
    15    7    8 1    
    16    8    9 1    
    17    8   79 1    
    18    8   80 1    
    19    9   10 ar   
    20    9   14 ar   
    21   10   11 ar   
    22   10   81 1    
    23   11   12 ar   
    24   11   71 1    
    25   12   13 ar   
    26   12   82 1    
    27   13   14 ar   
    28   13   15 1    
    29   14   83 1    
    30   15   16 1    
    31   15   84 1    
    32   15   85 1    
    33   16   17 1    
    34   17   18 1    
    35   17   86 1    
    36   17   87 1    
    37   18   19 1    
    38   18   37 1    
    39   18   88 1    
    40   19   20 am   BACKBONE|DICT|INTERRES
    41   19   89 1    
    42   20   21 2    
    43   20   22 1    
    44   22   23 1    
    45   22   24 1    
    46   22   90 1    
    47   23   91 1    
    48   23   92 1    
    49   23   93 1    
    50   24   25 am   BACKBONE|DICT|INTERRES
    51   24   94 1    
    52   25   26 2    
    53   25   27 1    
    54   27   28 1    
    55   27   29 1    
    56   27   95 1    
    57   28   96 1    
    58   28   97 1    
    59   28   98 1    
    60   29   30 am   BACKBONE|DICT|INTERRES
    61   29   99 1    
    62   30   31 2    
    63   30   32 1    
    64   32   33 1    
    65   32   34 1    
    66   32  100 1    
    67   33  101 1    
    68   33  102 1    
    69   33  103 1    
    70   34   35 am   BACKBONE|DICT|INTERRES
    71   34  104 1    
    72   35   36 2    
    73   37   38 2    
    74   37   39 am   BACKBONE|DICT|INTERRES
    75   39   40 1    
    76   39  105 1    
    77   40   41 1    
    78   40   42 1    
    79   40  106 1    
    80   41  107 1    
    81   41  108 1    
    82   41  109 1    
    83   42   43 2    
    84   42   44 am   BACKBONE|DICT|INTERRES
    85   44   45 1    
    86   44  110 1    
    87   45   46 1    
    88   45   47 1    
    89   45  111 1    
    90   46  112 1    
    91   46  113 1    
    92   46  114 1    
    93   47   48 2    
    94   47   49 am   BACKBONE|DICT|INTERRES
    95   49   50 1    
    96   49  115 1    
    97   50   51 1    
    98   50   52 1    
    99   50  116 1    
   100   51  117 1    
   101   51  118 1    
   102   51  119 1    
   103   52   53 2    
   104   52   54 am   BACKBONE|DICT|INTERRES
   105   54   55 1    
   106   54  120 1    
   107   55   56 1    
   108   55   57 1    
   109   55  121 1    
   110   56  122 1    
   111   56  123 1    
   112   56  124 1    
   113   57   58 2    
   114   57   59 am   BACKBONE|DICT|INTERRES
   115   59   60 1    
   116   59  125 1    
   117   60   61 1    
   118   60   62 1    
   119   60  126 1    
   120   61  127 1    
   121   61  128 1    
   122   61  129 1    
   123   62   63 2    
   124   62   64 am   BACKBONE|DICT|INTERRES
   125   64   65 1    
   126   64  130 1    
   127   65   66 1    
   128   65   69 1    
   129   65  131 1    
   130   66   67 am   BACKBONE|DICT|INTERRES
   131   66   68 2    
   132   67  132 1    
   133   67  133 1    
   134   69   70 1    
   135   69  134 1    
   136   69  135 1    
   137   70   71 1    
   138   71  136 1    
   139   71  137 1    
@<TRIPOS>SUBSTRUCTURE
     1 UNK         1 GROUP             0       ****    0 ROOT    
