@<TRIPOS>MOLECULE
3R137
137   139    1
SMALL
USER_CHARGES


@<TRIPOS>ATOM
      1 CA         26.9681   -4.2744    3.1043 C.3       0 UNK        -0.2020 
      2 C          27.1543   -3.7107    1.7039 C.2       0 UNK         0.4855 
      3 O          27.5542   -2.5560    1.5552 O.2       0 UNK        -0.5197 
      4 N          26.8517   -4.5081    0.6721 N.am      1 UNK        -0.4892 
      5 CA         26.9977   -4.1799   -0.7548 C.3       1 UNK         0.0835 
      6 C6         27.1790   -5.4676   -1.6050 C.3       12 UNK        -0.0855 
      7 S7         28.6484   -6.4282   -1.0918 S.3       12 UNK        -0.2931 
      8 C8         29.6431   -6.5010   -2.6255 C.3       12 UNK         0.0378 
      9 C9         30.0582   -5.1471   -3.2038 C.ar      12 UNK        -0.0802 
     10 C10        30.2420   -5.0302   -4.5861 C.ar      12 UNK        -0.0944 
     11 C11        30.6092   -3.8105   -5.1647 C.ar      12 UNK        -0.0787 
     12 C12        30.7867   -2.6971   -4.3369 C.ar      12 UNK        -0.0862 
     13 C13        30.6053   -2.7912   -2.9558 C.ar      12 UNK        -0.0733 
     14 C14        30.2689   -4.0249   -2.3931 C.ar      12 UNK        -0.0832 
     15 C15        30.7586   -1.5630   -2.0681 C.3       12 UNK         0.0240 
     16 S16        29.1317   -0.8738   -1.6195 S.3       12 UNK        -0.2522 
     17 C17        29.0307    0.6575   -2.6163 C.3       12 UNK        -0.0967 
     18 CA         28.8368    0.4276   -4.1369 C.3       5 UNK         0.0660 
     19 N          27.7705   -0.5309   -4.4282 N.am      5 UNK        -0.4015 
     20 C          27.6750   -1.2317   -5.5669 C.2       4 UNK         0.4946 
     21 O          28.4703   -1.1282   -6.4971 O.2       4 UNK        -0.5353 
     22 CA         26.4659   -2.1710   -5.7170 C.3       4 UNK         0.0277 
     23 CB         26.8347   -3.5775   -5.2254 C.3       4 UNK        -0.1981 
     24 N          25.2711   -1.6964   -5.0124 N.am      4 UNK        -0.4209 
     25 C          24.6738   -0.5154   -5.2394 C.2       3 UNK         0.4942 
     26 O          25.0468    0.2807   -6.1020 O.2       3 UNK        -0.5208 
     27 CA         23.5154   -0.1152   -4.3099 C.3       3 UNK         0.0250 
     28 CB         22.1677   -0.4977   -4.9409 C.3       3 UNK        -0.1990 
     29 N          23.5993   -0.6791   -2.9578 N.am      3 UNK        -0.4232 
     30 C          24.6285   -0.5322   -2.1100 C.2       2 UNK         0.4993 
     31 O          25.6582    0.0854   -2.3871 O.2       2 UNK        -0.5286 
     32 CA         24.5131   -1.2019   -0.7291 C.3       2 UNK         0.0209 
     33 CB         23.1290   -1.8240   -0.4306 C.3       2 UNK        -0.1931 
     34 N          25.5728   -2.1934   -0.5219 N.am      2 UNK        -0.4546 
     35 C          25.8408   -3.2822   -1.2577 C.2       1 UNK         0.5154 
     36 O          25.2055   -3.5933   -2.2682 O.2       1 UNK        -0.5181 
     37 C          28.6663    1.7627   -4.8970 C.2       5 UNK         0.5014 
     38 O          29.6005    2.5645   -4.8853 O.2       5 UNK        -0.5248 
     39 N          27.5097    1.9853   -5.5410 N.am      6 UNK        -0.4434 
     40 CA         27.2414    3.1237   -6.4228 C.3       6 UNK         0.0363 
     41 CB         25.9095    3.7764   -6.0190 C.3       6 UNK        -0.1936 
     42 C          27.1998    2.6892   -7.8974 C.2       6 UNK         0.5081 
     43 O          27.6853    3.4280   -8.7566 O.2       6 UNK        -0.5248 
     44 N          26.6320    1.5058   -8.1719 N.am      7 UNK        -0.4718 
     45 CA         26.5019    0.9095   -9.5049 C.3       7 UNK         0.0273 
     46 CB         25.7291   -0.4131   -9.3814 C.3       7 UNK        -0.1935 
     47 C          27.8494    0.6672  -10.2096 C.2       7 UNK         0.5018 
     48 O          28.8788    0.5131   -9.5488 O.2       7 UNK        -0.5186 
     49 N          27.8047    0.6308  -11.5502 N.am      8 UNK        -0.4240 
     50 CA         28.9389    0.4202  -12.4631 C.3       8 UNK         0.0235 
     51 CB         29.4647   -1.0278  -12.3462 C.3       8 UNK        -0.2000 
     52 C          30.0543    1.4745  -12.2998 C.2       8 UNK         0.4941 
     53 O          31.2333    1.1364  -12.4069 O.2       8 UNK        -0.5273 
     54 N          29.6489    2.7272  -12.0317 N.am      9 UNK        -0.4262 
     55 CA         30.4916    3.8803  -11.6896 C.3       9 UNK         0.0264 
     56 CB         31.3758    4.3015  -12.8840 C.3       9 UNK        -0.1955 
     57 C          31.2889    3.6422  -10.3912 C.2       9 UNK         0.5031 
     58 O          32.5082    3.8218  -10.3711 O.2       9 UNK        -0.5390 
     59 N          30.5638    3.2449   -9.3353 N.am      10 UNK        -0.4204 
     60 CA         31.0465    2.9017   -7.9954 C.3       10 UNK         0.0237 
     61 CB         31.6205    4.1424   -7.2777 C.3       10 UNK        -0.1985 
     62 C          31.9952    1.6884   -7.9832 C.2       10 UNK         0.4970 
     63 O          33.0756    1.7605   -7.3929 O.2       10 UNK        -0.4914 
     64 N          31.5533    0.5872   -8.6074 N.am      11 UNK        -0.4285 
     65 CA         32.2456   -0.7116   -8.6573 C.3       11 UNK         0.1007 
     66 C          33.6167   -0.6648   -9.4048 C.2       11 UNK         0.5703 
     67 N          34.4819   -1.6509   -9.2106 N.am      11 UNK        -0.7361 
     68 O          33.8935    0.2302  -10.2004 O.2       11 UNK        -0.4986 
     69 C69        32.2939   -1.3627   -7.2409 C.3       12 UNK        -0.0947 
     70 S70        32.4141   -3.1887   -7.2308 S.3       12 UNK        -0.2240 
     71 C71        30.7526   -3.7015   -6.6834 C.3       12 UNK         0.0194 
     72 H72        26.2449   -3.6751    3.6569 H         1 UNK         0.0906 
     73 H73        26.6125   -5.3044    3.0862 H         1 UNK         0.0906 
     74 H74        27.9136   -4.2520    3.6455 H         1 UNK         0.0906 
     75 H75        26.5139   -5.4418    0.8592 H         1 UNK         0.3140 
     76 H76        27.9001   -3.5781   -0.8718 H         1 UNK         0.1085 
     77 H77        27.2691   -5.2253   -2.6638 H         1 UNK         0.0836 
     78 H78        26.2998   -6.1089   -1.5203 H         1 UNK         0.0836 
     79 H79        30.5453   -7.0800   -2.4249 H         1 UNK         0.0731 
     80 H80        29.0748   -7.0644   -3.3676 H         1 UNK         0.0731 
     81 H81        30.0868   -5.8944   -5.2178 H         1 UNK         0.1312 
     82 H82        31.0609   -1.7475   -4.7606 H         1 UNK         0.1406 
     83 H83        30.1514   -4.0995   -1.3212 H         1 UNK         0.1631 
     84 H84        31.3725   -0.8037   -2.5547 H         1 UNK         0.0717 
     85 H85        31.2861   -1.8397   -1.1541 H         1 UNK         0.0717 
     86 H86        29.9279    1.2513   -2.4310 H         1 UNK         0.0934 
     87 H87        28.1991    1.2433   -2.2194 H         1 UNK         0.0934 
     88 H88        29.7672    0.0068   -4.5154 H         1 UNK         0.0739 
     89 H89        27.0539   -0.6208   -3.7146 H         1 UNK         0.3093 
     90 H90        26.2157   -2.2340   -6.7765 H         1 UNK         0.0818 
     91 H91        25.9838   -4.2578   -5.2623 H         1 UNK         0.0819 
     92 H92        27.6239   -4.0078   -5.8429 H         1 UNK         0.0819 
     93 H93        27.2067   -3.5510   -4.2015 H         1 UNK         0.0819 
     94 H94        24.9271   -2.2760   -4.2567 H         1 UNK         0.3041 
     95 H95        23.5497    0.9715   -4.2082 H         1 UNK         0.0784 
     96 H96        22.0704   -0.0720   -5.9409 H         1 UNK         0.0793 
     97 H97        22.0578   -1.5789   -5.0349 H         1 UNK         0.0793 
     98 H98        21.3312   -0.1238   -4.3501 H         1 UNK         0.0793 
     99 H99        22.8083   -1.2250   -2.6479 H         1 UNK         0.3024 
    100 H100       24.6836   -0.4084    0.0005 H         1 UNK         0.1171 
    101 H101       23.0937   -2.2196    0.5847 H         1 UNK         0.0786 
    102 H102       22.8867   -2.6446   -1.1071 H         1 UNK         0.0786 
    103 H103       22.3347   -1.0800   -0.5057 H         1 UNK         0.0786 
    104 H104       26.1933   -2.0236    0.2657 H         1 UNK         0.2977 
    105 H105       26.7933    1.2692   -5.5094 H         1 UNK         0.3127 
    106 H106       28.0280    3.8751   -6.3250 H         1 UNK         0.0770 
    107 H107       25.0737    3.0805   -6.1017 H         1 UNK         0.0814 
    108 H108       25.6863    4.6326   -6.6570 H         1 UNK         0.0814 
    109 H109       25.9429    4.1379   -4.9912 H         1 UNK         0.0814 
    110 H110       26.2110    0.9804   -7.4115 H         1 UNK         0.2983 
    111 H111       25.9168    1.6044  -10.1108 H         1 UNK         0.0947 
    112 H112       25.5227   -0.8433  -10.3622 H         1 UNK         0.0806 
    113 H113       24.7703   -0.2730   -8.8816 H         1 UNK         0.0806 
    114 H114       26.2993   -1.1514   -8.8178 H         1 UNK         0.0806 
    115 H115       26.9087    0.7649  -11.9994 H         1 UNK         0.3000 
    116 H116       28.5503    0.5482  -13.4747 H         1 UNK         0.0850 
    117 H117       30.2164   -1.2349  -13.1089 H         1 UNK         0.0810 
    118 H118       28.6625   -1.7537  -12.4790 H         1 UNK         0.0810 
    119 H119       29.9275   -1.2134  -11.3762 H         1 UNK         0.0810 
    120 H120       28.6528    2.8858  -11.9684 H         1 UNK         0.3040 
    121 H121       29.8114    4.7079  -11.4814 H         1 UNK         0.0766 
    122 H122       31.9133    5.2242  -12.6623 H         1 UNK         0.0812 
    123 H123       30.7776    4.4816  -13.7771 H         1 UNK         0.0812 
    124 H124       32.1219    3.5443  -13.1264 H         1 UNK         0.0812 
    125 H125       29.5591    3.1461   -9.4533 H         1 UNK         0.3205 
    126 H126       30.1642    2.5856   -7.4414 H         1 UNK         0.0754 
    127 H127       31.8629    3.9108   -6.2397 H         1 UNK         0.0769 
    128 H128       30.8997    4.9598   -7.2646 H         1 UNK         0.0769 
    129 H129       32.5330    4.5033   -7.7532 H         1 UNK         0.0769 
    130 H130       30.6354    0.6111   -9.0497 H         1 UNK         0.2981 
    131 H131       31.6027   -1.3293   -9.2848 H         1 UNK         0.0541 
    132 H132       35.3629   -1.6435   -9.6996 H         1 UNK         0.3459 
    133 H133       34.2557   -2.4024   -8.5754 H         1 UNK         0.3459 
    134 H134       31.3815   -1.0843   -6.7168 H         1 UNK         0.0612 
    135 H135       33.1142   -0.9518   -6.6501 H         1 UNK         0.0612 
    136 H136       30.0065   -3.0190   -7.0854 H         1 UNK         0.0624 
    137 H137       30.5425   -4.6668   -7.1460 H         1 UNK         0.0624 
@<TRIPOS>BOND
     1    1    2 1    
     2    1   72 1    
     3    1   73 1    
     4    1   74 1    
     5    2    3 2    
     6    2    4 am   BACKBONE|DICT|INTERRES
     7    4    5 1    
     8    4   75 1    
     9    5    6 1    
    10    5   35 1    
    11    5   76 1    
    12    6    7 1    
    13    6   77 1    
    14    6   78 1    
    15    7    8 1    
    16    8    9 1    
    17    8   79 1    
    18    8   80 1    
    19    9   10 ar   
    20    9   14 ar   
    21   10   11 ar   
    22   10   81 1    
    23   11   12 ar   
    24   11   71 1    
    25   12   13 ar   
    26   12   82 1    
    27   13   14 ar   
    28   13   15 1    
    29   14   83 1    
    30   15   16 1    
    31   15   84 1    
    32   15   85 1    
    33   16   17 1    
    34   17   18 1    
    35   17   86 1    
    36   17   87 1    
    37   18   19 1    
    38   18   37 1    
    39   18   88 1    
    40   19   20 am   BACKBONE|DICT|INTERRES
    41   19   89 1    
    42   20   21 2    
    43   20   22 1    
    44   22   23 1    
    45   22   24 1    
    46   22   90 1    
    47   23   91 1    
    48   23   92 1    
    49   23   93 1    
    50   24   25 am   BACKBONE|DICT|INTERRES
    51   24   94 1    
    52   25   26 2    
    53   25   27 1    
    54   27   28 1    
    55   27   29 1    
    56   27   95 1    
    57   28   96 1    
    58   28   97 1    
    59   28   98 1    
    60   29   30 am   BACKBONE|DICT|INTERRES
    61   29   99 1    
    62   30   31 2    
    63   30   32 1    
    64   32   33 1    
    65   32   34 1    
    66   32  100 1    
    67   33  101 1    
    68   33  102 1    
    69   33  103 1    
    70   34   35 am   BACKBONE|DICT|INTERRES
    71   34  104 1    
    72   35   36 2    
    73   37   38 2    
    74   37   39 am   BACKBONE|DICT|INTERRES
    75   39   40 1    
    76   39  105 1    
    77   40   41 1    
    78   40   42 1    
    79   40  106 1    
    80   41  107 1    
    81   41  108 1    
    82   41  109 1    
    83   42   43 2    
    84   42   44 am   BACKBONE|DICT|INTERRES
    85   44   45 1    
    86   44  110 1    
    87   45   46 1    
    88   45   47 1    
    89   45  111 1    
    90   46  112 1    
    91   46  113 1    
    92   46  114 1    
    93   47   48 2    
    94   47   49 am   BACKBONE|DICT|INTERRES
    95   49   50 1    
    96   49  115 1    
    97   50   51 1    
    98   50   52 1    
    99   50  116 1    
   100   51  117 1    
   101   51  118 1    
   102   51  119 1    
   103   52   53 2    
   104   52   54 am   BACKBONE|DICT|INTERRES
   105   54   55 1    
   106   54  120 1    
   107   55   56 1    
   108   55   57 1    
   109   55  121 1    
   110   56  122 1    
   111   56  123 1    
   112   56  124 1    
   113   57   58 2    
   114   57   59 am   BACKBONE|DICT|INTERRES
   115   59   60 1    
   116   59  125 1    
   117   60   61 1    
   118   60   62 1    
   119   60  126 1    
   120   61  127 1    
   121   61  128 1    
   122   61  129 1    
   123   62   63 2    
   124   62   64 am   BACKBONE|DICT|INTERRES
   125   64   65 1    
   126   64  130 1    
   127   65   66 1    
   128   65   69 1    
   129   65  131 1    
   130   66   67 am   BACKBONE|DICT|INTERRES
   131   66   68 2    
   132   67  132 1    
   133   67  133 1    
   134   69   70 1    
   135   69  134 1    
   136   69  135 1    
   137   70   71 1    
   138   71  136 1    
   139   71  137 1    
@<TRIPOS>SUBSTRUCTURE
     1 UNK         1 GROUP             0       ****    0 ROOT    
