@<TRIPOS>MOLECULE
3R137
137   139    1
SMALL
USER_CHARGES


@<TRIPOS>ATOM
      1 CA         25.7162   -7.2794    0.1303 C.3       0 UNK        -0.2020 
      2 C          26.1951   -5.8395    0.0206 C.2       0 UNK         0.4855 
      3 O          26.1728   -5.1116    1.0132 O.2       0 UNK        -0.5197 
      4 N          26.6333   -5.4285   -1.1768 N.am      1 UNK        -0.4892 
      5 CA         27.1211   -4.0774   -1.4847 C.3       1 UNK         0.0835 
      6 C6         27.7706   -4.0190   -2.8897 C.3       12 UNK        -0.0855 
      7 S7         29.3605   -4.9133   -2.9335 S.3       12 UNK        -0.2931 
      8 C8         30.2633   -4.0286   -4.2578 C.3       12 UNK         0.0378 
      9 C9         30.7075   -2.5938   -3.9517 C.ar      12 UNK        -0.0802 
     10 C10        31.3533   -1.8748   -4.9631 C.ar      12 UNK        -0.0944 
     11 C11        31.7623   -0.5535   -4.7616 C.ar      12 UNK        -0.0787 
     12 C12        31.5174    0.0613   -3.5327 C.ar      12 UNK        -0.0862 
     13 C13        30.8405   -0.6281   -2.5239 C.ar      12 UNK        -0.0733 
     14 C14        30.4725   -1.9613   -2.7235 C.ar      12 UNK        -0.0832 
     15 C15        30.4273    0.0926   -1.2503 C.3       12 UNK         0.0240 
     16 S16        29.1448    1.3505   -1.5800 S.3       12 UNK        -0.2522 
     17 C17        27.8611    0.4062   -2.4820 C.3       12 UNK        -0.0967 
     18 CA         27.9212    0.6035   -4.0206 C.3       5 UNK         0.0660 
     19 N          27.1515   -0.4114   -4.7464 N.am      5 UNK        -0.4015 
     20 C          27.3603   -0.7287   -6.0352 C.2       4 UNK         0.4946 
     21 O          28.2768   -0.2669   -6.7133 O.2       4 UNK        -0.5353 
     22 CA         26.3751   -1.6942   -6.7180 C.3       4 UNK         0.0277 
     23 CB         26.9320   -3.1255   -6.7180 C.3       4 UNK        -0.1981 
     24 N          25.0309   -1.6803   -6.1373 N.am      4 UNK        -0.4209 
     25 C          24.2092   -0.6211   -6.1632 C.2       3 UNK         0.4942 
     26 O          24.4813    0.4369   -6.7290 O.2       3 UNK        -0.5208 
     27 CA         22.8914   -0.7317   -5.3761 C.3       3 UNK         0.0250 
     28 CB         21.7615   -1.2251   -6.2931 C.3       3 UNK        -0.1990 
     29 N          22.9579   -1.5822   -4.1794 N.am      3 UNK        -0.4232 
     30 C          23.8238   -1.4409   -3.1639 C.2       2 UNK         0.4993 
     31 O          24.7266   -0.6015   -3.1625 O.2       2 UNK        -0.5286 
     32 CA         23.6814   -2.4041   -1.9685 C.3       2 UNK         0.0209 
     33 CB         22.3851   -3.2412   -1.9811 C.3       2 UNK        -0.1931 
     34 N          24.8290   -3.3107   -1.9068 N.am      2 UNK        -0.4546 
     35 C          26.0134   -3.0127   -1.3545 C.2       1 UNK         0.5154 
     36 O          26.2488   -1.9655   -0.7519 O.2       1 UNK        -0.5181 
     37 C          27.4827    2.0173   -4.4441 C.2       5 UNK         0.5014 
     38 O          28.3388    2.8671   -4.6913 O.2       5 UNK        -0.5248 
     39 N          26.1631    2.2331   -4.5620 N.am      6 UNK        -0.4434 
     40 CA         25.5652    3.4962   -5.0063 C.3       6 UNK         0.0363 
     41 CB         24.0406    3.4434   -4.8163 C.3       6 UNK        -0.1936 
     42 C          25.9261    3.8487   -6.4602 C.2       6 UNK         0.5081 
     43 O          26.2495    5.0023   -6.7436 O.2       6 UNK        -0.5248 
     44 N          25.8897    2.8453   -7.3468 N.am      7 UNK        -0.4718 
     45 CA         26.2926    2.9610   -8.7508 C.3       7 UNK         0.0273 
     46 CB         25.6632    1.8008   -9.5399 C.3       7 UNK        -0.1935 
     47 C          27.8192    2.9682   -8.9547 C.2       7 UNK         0.5018 
     48 O          28.2722    3.3863  -10.0207 O.2       7 UNK        -0.5186 
     49 N          28.5703    2.4735   -7.9578 N.am      8 UNK        -0.4240 
     50 CA         30.0129    2.1932   -7.9683 C.3       8 UNK         0.0235 
     51 CB         30.8317    3.4989   -8.0300 C.3       8 UNK        -0.2000 
     52 C          30.4032    1.1797   -9.0651 C.2       8 UNK         0.4941 
     53 O          31.4386    1.3333   -9.7163 O.2       8 UNK        -0.5273 
     54 N          29.5461    0.1669   -9.2546 N.am      9 UNK        -0.4262 
     55 CA         29.5077   -0.7222  -10.4187 C.3       9 UNK         0.0264 
     56 CB         28.2782   -1.6400  -10.3189 C.3       9 UNK        -0.1955 
     57 C          30.7848   -1.5453  -10.6418 C.2       9 UNK         0.5031 
     58 O          31.2350   -1.6622  -11.7824 O.2       9 UNK        -0.5390 
     59 N          31.3445   -2.0928   -9.5560 N.am      10 UNK        -0.4204 
     60 CA         32.5805   -2.8811   -9.5872 C.3       10 UNK         0.0237 
     61 CB         32.5268   -3.9514   -8.4836 C.3       10 UNK        -0.1985 
     62 C          33.8482   -2.0204   -9.4390 C.2       10 UNK         0.4970 
     63 O          34.9410   -2.5334   -9.6841 O.2       10 UNK        -0.4914 
     64 N          33.6960   -0.7583   -9.0190 N.am      11 UNK        -0.4285 
     65 CA         34.8041    0.1671   -8.7416 C.3       11 UNK         0.1007 
     66 C          35.1313    1.0757   -9.9555 C.2       11 UNK         0.5703 
     67 N          34.1468    1.4977  -10.7405 N.am      11 UNK        -0.7361 
     68 O          36.2943    1.3928  -10.1931 O.2       11 UNK        -0.4986 
     69 C69        34.5452    1.0206   -7.4726 C.3       12 UNK        -0.0947 
     70 S70        34.1906    0.0148   -5.9887 S.3       12 UNK        -0.2240 
     71 C71        32.3914    0.2362   -5.8962 C.3       12 UNK         0.0194 
     72 H72        24.6727   -7.3046    0.4434 H         1 UNK         0.0906 
     73 H73        25.7986   -7.8113   -0.8174 H         1 UNK         0.0906 
     74 H74        26.3074   -7.8158    0.8720 H         1 UNK         0.0906 
     75 H75        26.6627   -6.0868   -1.9428 H         1 UNK         0.3140 
     76 H76        27.8811   -3.8238   -0.7416 H         1 UNK         0.1085 
     77 H77        27.1058   -4.4596   -3.6335 H         1 UNK         0.0836 
     78 H78        27.9349   -2.9872   -3.2053 H         1 UNK         0.0836 
     79 H79        29.6414   -4.0243   -5.1543 H         1 UNK         0.0731 
     80 H80        31.1502   -4.6142   -4.5040 H         1 UNK         0.0731 
     81 H81        31.5217   -2.3398   -5.9221 H         1 UNK         0.1312 
     82 H82        31.7942    1.0960   -3.3815 H         1 UNK         0.1406 
     83 H83        29.9639   -2.4821   -1.9261 H         1 UNK         0.1631 
     84 H84        31.2982    0.5768   -0.8063 H         1 UNK         0.0717 
     85 H85        30.0513   -0.6109   -0.5057 H         1 UNK         0.0717 
     86 H86        27.9814   -0.6488   -2.2399 H         1 UNK         0.0934 
     87 H87        26.8810    0.6822   -2.0882 H         1 UNK         0.0934 
     88 H88        28.9601    0.4912   -4.3314 H         1 UNK         0.0739 
     89 H89        26.3297   -0.7692   -4.2687 H         1 UNK         0.3093 
     90 H90        26.2848   -1.3707   -7.7572 H         1 UNK         0.0818 
     91 H91        26.9858   -3.5374   -5.7126 H         1 UNK         0.0819 
     92 H92        26.3148   -3.7911   -7.3217 H         1 UNK         0.0819 
     93 H93        27.9401   -3.1552   -7.1338 H         1 UNK         0.0819 
     94 H94        24.7250   -2.5132   -5.6562 H         1 UNK         0.3041 
     95 H95        22.6385    0.2751   -5.0379 H         1 UNK         0.0784 
     96 H96        21.6763   -0.5961   -7.1807 H         1 UNK         0.0793 
     97 H97        21.9334   -2.2472   -6.6333 H         1 UNK         0.0793 
     98 H98        20.7966   -1.1965   -5.7863 H         1 UNK         0.0793 
     99 H99        22.2541   -2.3024   -4.1027 H         1 UNK         0.3024 
    100 H100       23.6669   -1.7822   -1.0701 H         1 UNK         0.1171 
    101 H101       21.5007   -2.6030   -2.0173 H         1 UNK         0.0786 
    102 H102       22.3412   -3.9282   -2.8272 H         1 UNK         0.0786 
    103 H103       22.3025   -3.8388   -1.0728 H         1 UNK         0.0786 
    104 H104       24.7278   -4.2060   -2.3625 H         1 UNK         0.2977 
    105 H105       25.5276    1.4760   -4.3489 H         1 UNK         0.3127 
    106 H106       25.9590    4.2896   -4.3674 H         1 UNK         0.0770 
    107 H107       23.5812    2.6671   -5.4286 H         1 UNK         0.0814 
    108 H108       23.5819    4.3921   -5.0983 H         1 UNK         0.0814 
    109 H109       23.7753    3.2527   -3.7763 H         1 UNK         0.0814 
    110 H110       25.5271    1.9415   -7.0471 H         1 UNK         0.2983 
    111 H111       25.9039    3.9004   -9.1503 H         1 UNK         0.0947 
    112 H112       25.9176    1.8614  -10.5990 H         1 UNK         0.0806 
    113 H113       24.5756    1.8154   -9.4660 H         1 UNK         0.0806 
    114 H114       26.0085    0.8330   -9.1749 H         1 UNK         0.0806 
    115 H115       28.0828    2.1554   -7.1309 H         1 UNK         0.3000 
    116 H116       30.2202    1.7137   -7.0124 H         1 UNK         0.0850 
    117 H117       30.7030    4.0125   -8.9832 H         1 UNK         0.0810 
    118 H118       30.5397    4.1855   -7.2354 H         1 UNK         0.0810 
    119 H119       31.8968    3.2999   -7.9110 H         1 UNK         0.0810 
    120 H120       28.8063    0.0610   -8.5660 H         1 UNK         0.3040 
    121 H121       29.3803   -0.0854  -11.2967 H         1 UNK         0.0766 
    122 H122       28.2125   -2.3006  -11.1847 H         1 UNK         0.0812 
    123 H123       27.3539   -1.0634  -10.2843 H         1 UNK         0.0812 
    124 H124       28.3147   -2.2705   -9.4303 H         1 UNK         0.0812 
    125 H125       30.8985   -1.9550   -8.6608 H         1 UNK         0.3205 
    126 H126       32.6513   -3.3999  -10.5459 H         1 UNK         0.0754 
    127 H127       33.3680   -4.6402   -8.5734 H         1 UNK         0.0769 
    128 H128       31.6157   -4.5470   -8.5459 H         1 UNK         0.0769 
    129 H129       32.5800   -3.5129   -7.4883 H         1 UNK         0.0769 
    130 H130       32.7666   -0.3729   -8.9426 H         1 UNK         0.2981 
    131 H131       35.7052   -0.4164   -8.5421 H         1 UNK         0.0541 
    132 H132       34.3639    2.0811  -11.5321 H         1 UNK         0.3459 
    133 H133       33.1766    1.3142  -10.4997 H         1 UNK         0.3459 
    134 H134       33.7258    1.7208   -7.6431 H         1 UNK         0.0612 
    135 H135       35.4205    1.6333   -7.2492 H         1 UNK         0.0612 
    136 H136       32.1745    1.2985   -5.7760 H         1 UNK         0.0624 
    137 H137       31.9438   -0.0710   -6.8409 H         1 UNK         0.0624 
@<TRIPOS>BOND
     1    1    2 1    
     2    1   72 1    
     3    1   73 1    
     4    1   74 1    
     5    2    3 2    
     6    2    4 am   BACKBONE|DICT|INTERRES
     7    4    5 1    
     8    4   75 1    
     9    5    6 1    
    10    5   35 1    
    11    5   76 1    
    12    6    7 1    
    13    6   77 1    
    14    6   78 1    
    15    7    8 1    
    16    8    9 1    
    17    8   79 1    
    18    8   80 1    
    19    9   10 ar   
    20    9   14 ar   
    21   10   11 ar   
    22   10   81 1    
    23   11   12 ar   
    24   11   71 1    
    25   12   13 ar   
    26   12   82 1    
    27   13   14 ar   
    28   13   15 1    
    29   14   83 1    
    30   15   16 1    
    31   15   84 1    
    32   15   85 1    
    33   16   17 1    
    34   17   18 1    
    35   17   86 1    
    36   17   87 1    
    37   18   19 1    
    38   18   37 1    
    39   18   88 1    
    40   19   20 am   BACKBONE|DICT|INTERRES
    41   19   89 1    
    42   20   21 2    
    43   20   22 1    
    44   22   23 1    
    45   22   24 1    
    46   22   90 1    
    47   23   91 1    
    48   23   92 1    
    49   23   93 1    
    50   24   25 am   BACKBONE|DICT|INTERRES
    51   24   94 1    
    52   25   26 2    
    53   25   27 1    
    54   27   28 1    
    55   27   29 1    
    56   27   95 1    
    57   28   96 1    
    58   28   97 1    
    59   28   98 1    
    60   29   30 am   BACKBONE|DICT|INTERRES
    61   29   99 1    
    62   30   31 2    
    63   30   32 1    
    64   32   33 1    
    65   32   34 1    
    66   32  100 1    
    67   33  101 1    
    68   33  102 1    
    69   33  103 1    
    70   34   35 am   BACKBONE|DICT|INTERRES
    71   34  104 1    
    72   35   36 2    
    73   37   38 2    
    74   37   39 am   BACKBONE|DICT|INTERRES
    75   39   40 1    
    76   39  105 1    
    77   40   41 1    
    78   40   42 1    
    79   40  106 1    
    80   41  107 1    
    81   41  108 1    
    82   41  109 1    
    83   42   43 2    
    84   42   44 am   BACKBONE|DICT|INTERRES
    85   44   45 1    
    86   44  110 1    
    87   45   46 1    
    88   45   47 1    
    89   45  111 1    
    90   46  112 1    
    91   46  113 1    
    92   46  114 1    
    93   47   48 2    
    94   47   49 am   BACKBONE|DICT|INTERRES
    95   49   50 1    
    96   49  115 1    
    97   50   51 1    
    98   50   52 1    
    99   50  116 1    
   100   51  117 1    
   101   51  118 1    
   102   51  119 1    
   103   52   53 2    
   104   52   54 am   BACKBONE|DICT|INTERRES
   105   54   55 1    
   106   54  120 1    
   107   55   56 1    
   108   55   57 1    
   109   55  121 1    
   110   56  122 1    
   111   56  123 1    
   112   56  124 1    
   113   57   58 2    
   114   57   59 am   BACKBONE|DICT|INTERRES
   115   59   60 1    
   116   59  125 1    
   117   60   61 1    
   118   60   62 1    
   119   60  126 1    
   120   61  127 1    
   121   61  128 1    
   122   61  129 1    
   123   62   63 2    
   124   62   64 am   BACKBONE|DICT|INTERRES
   125   64   65 1    
   126   64  130 1    
   127   65   66 1    
   128   65   69 1    
   129   65  131 1    
   130   66   67 am   BACKBONE|DICT|INTERRES
   131   66   68 2    
   132   67  132 1    
   133   67  133 1    
   134   69   70 1    
   135   69  134 1    
   136   69  135 1    
   137   70   71 1    
   138   71  136 1    
   139   71  137 1    
@<TRIPOS>SUBSTRUCTURE
     1 UNK         1 GROUP             0       ****    0 ROOT    
