@<TRIPOS>MOLECULE
3R137
137   139    1
SMALL
USER_CHARGES


@<TRIPOS>ATOM
      1 CA         29.0610   -6.3958   -8.1301 C.3       0 UNK        -0.2020 
      2 C          28.5201   -6.3810   -6.7098 C.2       0 UNK         0.4855 
      3 O          27.8987   -7.3544   -6.2816 O.2       0 UNK        -0.5197 
      4 N          28.7436   -5.2833   -5.9776 N.am      1 UNK        -0.4892 
      5 CA         28.1440   -5.0358   -4.6628 C.3       1 UNK         0.0835 
      6 C6         28.9885   -3.9996   -3.8822 C.3       12 UNK        -0.0855 
      7 S7         28.3715   -3.6464   -2.1988 S.3       12 UNK        -0.2931 
      8 C8         29.8955   -3.1779   -1.3184 C.3       12 UNK         0.0378 
      9 C9         30.3967   -1.7929   -1.7104 C.ar      12 UNK        -0.0802 
     10 C10        31.2560   -1.6440   -2.8035 C.ar      12 UNK        -0.0944 
     11 C11        31.7666   -0.3873   -3.1348 C.ar      12 UNK        -0.0787 
     12 C12        31.4205    0.7230   -2.3646 C.ar      12 UNK        -0.0862 
     13 C13        30.5388    0.5997   -1.2884 C.ar      12 UNK        -0.0733 
     14 C14        30.0362   -0.6656   -0.9598 C.ar      12 UNK        -0.0832 
     15 C15        30.1687    1.8287   -0.4646 C.3       12 UNK         0.0240 
     16 S16        28.7138    2.7176   -1.1206 S.3       12 UNK        -0.2522 
     17 C17        29.3469    3.4369   -2.6879 C.3       12 UNK        -0.0967 
     18 CA         28.7248    2.8570   -3.9999 C.3       5 UNK         0.0660 
     19 N          28.1427    1.5274   -3.8019 N.am      5 UNK        -0.4015 
     20 C          27.5660    0.7183   -4.6968 C.2       4 UNK         0.4946 
     21 O          27.4681    0.9732   -5.9001 O.2       4 UNK        -0.5353 
     22 CA         27.0085   -0.6000   -4.1335 C.3       4 UNK         0.0277 
     23 CB         26.6725   -0.5389   -2.6233 C.3       4 UNK        -0.1981 
     24 N          25.8506   -1.1138   -4.8652 N.am      4 UNK        -0.4209 
     25 C          24.6438   -0.5375   -4.9678 C.2       3 UNK         0.4942 
     26 O          24.3985    0.6207   -4.6278 O.2       3 UNK        -0.5208 
     27 CA         23.4942   -1.4266   -5.4833 C.3       3 UNK         0.0250 
     28 CB         23.2241   -1.1594   -6.9715 C.3       3 UNK        -0.1990 
     29 N          23.7374   -2.8606   -5.2864 N.am      3 UNK        -0.4232 
     30 C          23.8348   -3.4827   -4.1008 C.2       2 UNK         0.4993 
     31 O          23.6034   -2.9414   -3.0194 O.2       2 UNK        -0.5286 
     32 CA         24.2888   -4.9563   -4.1217 C.3       2 UNK         0.0209 
     33 CB         23.7245   -5.7419   -5.3269 C.3       2 UNK        -0.1931 
     34 N          25.7506   -5.1200   -4.0399 N.am      2 UNK        -0.4546 
     35 C          26.6728   -4.6076   -4.8702 C.2       1 UNK         0.5154 
     36 O          26.4008   -3.8340   -5.7894 O.2       1 UNK        -0.5181 
     37 C          27.7745    3.8738   -4.6676 C.2       5 UNK         0.5014 
     38 O          28.2657    4.7973   -5.3174 O.2       5 UNK        -0.5248 
     39 N          26.4520    3.6951   -4.5268 N.am      6 UNK        -0.4434 
     40 CA         25.4380    4.5231   -5.1865 C.3       6 UNK         0.0363 
     41 CB         24.0588    4.2379   -4.5717 C.3       6 UNK        -0.1936 
     42 C          25.4022    4.3280   -6.7138 C.2       6 UNK         0.5081 
     43 O          25.0955    5.2798   -7.4323 O.2       6 UNK        -0.5248 
     44 N          25.7248    3.1141   -7.1798 N.am      7 UNK        -0.4718 
     45 CA         25.8170    2.7614   -8.5996 C.3       7 UNK         0.0273 
     46 CB         25.0854    1.4265   -8.8125 C.3       7 UNK        -0.1935 
     47 C          27.2721    2.6469   -9.0876 C.2       7 UNK         0.5018 
     48 O          27.4879    2.5863  -10.2984 O.2       7 UNK        -0.5186 
     49 N          28.2274    2.5769   -8.1471 N.am      8 UNK        -0.4240 
     50 CA         29.6381    2.2064   -8.3222 C.3       8 UNK         0.0235 
     51 CB         30.3925    3.2297   -9.1972 C.3       8 UNK        -0.2000 
     52 C          29.7886    0.7516   -8.8152 C.2       8 UNK         0.4941 
     53 O          30.6787    0.4558   -9.6162 O.2       8 UNK        -0.5273 
     54 N          28.8952   -0.1252   -8.3347 N.am      9 UNK        -0.4262 
     55 CA         28.7234   -1.5140   -8.7599 C.3       9 UNK         0.0264 
     56 CB         27.4392   -2.0577   -8.1230 C.3       9 UNK        -0.1955 
     57 C          29.9427   -2.3932   -8.4327 C.2       9 UNK         0.5031 
     58 O          30.0416   -2.9232   -7.3226 O.2       9 UNK        -0.5390 
     59 N          30.8364   -2.5162   -9.4248 N.am      10 UNK        -0.4204 
     60 CA         32.1526   -3.1655   -9.3849 C.3       10 UNK         0.0237 
     61 CB         32.0431   -4.6702   -9.0592 C.3       10 UNK        -0.1985 
     62 C          33.1686   -2.4267   -8.4914 C.2       10 UNK         0.4970 
     63 O          34.1152   -3.0496   -8.0066 O.2       10 UNK        -0.4914 
     64 N          32.9775   -1.1128   -8.3111 N.am      11 UNK        -0.4285 
     65 CA         33.8774   -0.2433   -7.5369 C.3       11 UNK         0.1007 
     66 C          35.0992    0.2842   -8.3435 C.2       11 UNK         0.5703 
     67 N          35.1812    0.0693   -9.6517 N.am      11 UNK        -0.7361 
     68 O          35.9996    0.8898   -7.7669 O.2       11 UNK        -0.4986 
     69 C69        33.1126    0.9187   -6.8528 C.3       12 UNK        -0.0947 
     70 S70        31.7575    0.3514   -5.7738 S.3       12 UNK        -0.2240 
     71 C71        32.6927   -0.2122   -4.3236 C.3       12 UNK         0.0194 
     72 H72        28.3651   -6.9059   -8.7956 H         1 UNK         0.0906 
     73 H73        29.2033   -5.3852   -8.5105 H         1 UNK         0.0906 
     74 H74        30.0152   -6.9206   -8.1654 H         1 UNK         0.0906 
     75 H75        29.2159   -4.4866   -6.4009 H         1 UNK         0.3140 
     76 H76        28.1529   -5.9707   -4.0978 H         1 UNK         0.1085 
     77 H77        29.0785   -3.0712   -4.4455 H         1 UNK         0.0836 
     78 H78        30.0064   -4.3822   -3.7943 H         1 UNK         0.0836 
     79 H79        30.6696   -3.9257   -1.4973 H         1 UNK         0.0731 
     80 H80        29.6969   -3.2061   -0.2460 H         1 UNK         0.0731 
     81 H81        31.5356   -2.5064   -3.3925 H         1 UNK         0.1312 
     82 H82        31.8434    1.6847   -2.6150 H         1 UNK         0.1406 
     83 H83        29.3703   -0.7750   -0.1143 H         1 UNK         0.1631 
     84 H84        31.0159    2.5140   -0.4068 H         1 UNK         0.0717 
     85 H85        29.9567    1.5301    0.5631 H         1 UNK         0.0717 
     86 H86        29.2115    4.5189   -2.6200 H         1 UNK         0.0934 
     87 H87        30.4282    3.3244   -2.7218 H         1 UNK         0.0934 
     88 H88        29.5399    2.7126   -4.7124 H         1 UNK         0.0739 
     89 H89        28.1750    1.2139   -2.8416 H         1 UNK         0.3093 
     90 H90        27.8000   -1.3311   -4.2712 H         1 UNK         0.0818 
     91 H91        27.5632   -0.3988   -2.0148 H         1 UNK         0.0819 
     92 H92        25.9792    0.2702   -2.3896 H         1 UNK         0.0819 
     93 H93        26.2118   -1.4684   -2.2875 H         1 UNK         0.0819 
     94 H94        25.9541   -2.0561   -5.2339 H         1 UNK         0.3041 
     95 H95        22.5991   -1.1606   -4.9175 H         1 UNK         0.0784 
     96 H96        22.9872   -0.1081   -7.1371 H         1 UNK         0.0793 
     97 H97        24.0880   -1.4056   -7.5900 H         1 UNK         0.0793 
     98 H98        22.3751   -1.7405   -7.3322 H         1 UNK         0.0793 
     99 H99        24.0094   -3.3865   -6.1054 H         1 UNK         0.3024 
    100 H100       23.8758   -5.4099   -3.2189 H         1 UNK         0.1171 
    101 H101       23.9111   -6.8101   -5.2160 H         1 UNK         0.0786 
    102 H102       22.6443   -5.6129   -5.4094 H         1 UNK         0.0786 
    103 H103       24.1672   -5.4315   -6.2738 H         1 UNK         0.0786 
    104 H104       26.0747   -5.6985   -3.2768 H         1 UNK         0.2977 
    105 H105       26.1199    2.9055   -3.9908 H         1 UNK         0.3127 
    106 H106       25.6831    5.5702   -4.9951 H         1 UNK         0.0770 
    107 H107       23.7484    3.2056   -4.7349 H         1 UNK         0.0814 
    108 H108       23.2961    4.8794   -5.0152 H         1 UNK         0.0814 
    109 H109       24.0544    4.4256   -3.4980 H         1 UNK         0.0814 
    110 H110       25.9683    2.3854   -6.5172 H         1 UNK         0.2983 
    111 H111       25.3299    3.5198   -9.2165 H         1 UNK         0.0947 
    112 H112       25.5003    0.6385   -8.1834 H         1 UNK         0.0806 
    113 H113       25.1598    1.0939   -9.8489 H         1 UNK         0.0806 
    114 H114       24.0250    1.5212   -8.5804 H         1 UNK         0.0806 
    115 H115       27.9056    2.5685   -7.1872 H         1 UNK         0.3000 
    116 H116       30.0798    2.2388   -7.3261 H         1 UNK         0.0850 
    117 H117       30.2603    4.2446   -8.8225 H         1 UNK         0.0810 
    118 H118       30.0554    3.2065  -10.2337 H         1 UNK         0.0810 
    119 H119       31.4631    3.0235   -9.2038 H         1 UNK         0.0810 
    120 H120       28.2630    0.2028   -7.6110 H         1 UNK         0.3040 
    121 H121       28.5787   -1.5179   -9.8422 H         1 UNK         0.0766 
    122 H122       27.3148   -3.1232   -8.3212 H         1 UNK         0.0812 
    123 H123       26.5555   -1.5495   -8.5069 H         1 UNK         0.0812 
    124 H124       27.4612   -1.9223   -7.0427 H         1 UNK         0.0812 
    125 H125       30.6499   -1.9905  -10.2692 H         1 UNK         0.3205 
    126 H126       32.5492   -3.0868  -10.3981 H         1 UNK         0.0754 
    127 H127       33.0062   -5.1678   -9.1791 H         1 UNK         0.0769 
    128 H128       31.3420   -5.1688   -9.7279 H         1 UNK         0.0769 
    129 H129       31.7189   -4.8414   -8.0324 H         1 UNK         0.0769 
    130 H130       32.1841   -0.6584   -8.7502 H         1 UNK         0.2981 
    131 H131       34.3116   -0.8437   -6.7358 H         1 UNK         0.0541 
    132 H132       35.9820    0.4120  -10.1587 H         1 UNK         0.3459 
    133 H133       34.4481   -0.4216  -10.1370 H         1 UNK         0.3459 
    134 H134       33.7890    1.5343   -6.2570 H         1 UNK         0.0612 
    135 H135       32.6871    1.5824   -7.6064 H         1 UNK         0.0612 
    136 H136       33.4720    0.5112   -4.0791 H         1 UNK         0.0624 
    137 H137       33.1975   -1.1501   -4.5596 H         1 UNK         0.0624 
@<TRIPOS>BOND
     1    1    2 1    
     2    1   72 1    
     3    1   73 1    
     4    1   74 1    
     5    2    3 2    
     6    2    4 am   BACKBONE|DICT|INTERRES
     7    4    5 1    
     8    4   75 1    
     9    5    6 1    
    10    5   35 1    
    11    5   76 1    
    12    6    7 1    
    13    6   77 1    
    14    6   78 1    
    15    7    8 1    
    16    8    9 1    
    17    8   79 1    
    18    8   80 1    
    19    9   10 ar   
    20    9   14 ar   
    21   10   11 ar   
    22   10   81 1    
    23   11   12 ar   
    24   11   71 1    
    25   12   13 ar   
    26   12   82 1    
    27   13   14 ar   
    28   13   15 1    
    29   14   83 1    
    30   15   16 1    
    31   15   84 1    
    32   15   85 1    
    33   16   17 1    
    34   17   18 1    
    35   17   86 1    
    36   17   87 1    
    37   18   19 1    
    38   18   37 1    
    39   18   88 1    
    40   19   20 am   BACKBONE|DICT|INTERRES
    41   19   89 1    
    42   20   21 2    
    43   20   22 1    
    44   22   23 1    
    45   22   24 1    
    46   22   90 1    
    47   23   91 1    
    48   23   92 1    
    49   23   93 1    
    50   24   25 am   BACKBONE|DICT|INTERRES
    51   24   94 1    
    52   25   26 2    
    53   25   27 1    
    54   27   28 1    
    55   27   29 1    
    56   27   95 1    
    57   28   96 1    
    58   28   97 1    
    59   28   98 1    
    60   29   30 am   BACKBONE|DICT|INTERRES
    61   29   99 1    
    62   30   31 2    
    63   30   32 1    
    64   32   33 1    
    65   32   34 1    
    66   32  100 1    
    67   33  101 1    
    68   33  102 1    
    69   33  103 1    
    70   34   35 am   BACKBONE|DICT|INTERRES
    71   34  104 1    
    72   35   36 2    
    73   37   38 2    
    74   37   39 am   BACKBONE|DICT|INTERRES
    75   39   40 1    
    76   39  105 1    
    77   40   41 1    
    78   40   42 1    
    79   40  106 1    
    80   41  107 1    
    81   41  108 1    
    82   41  109 1    
    83   42   43 2    
    84   42   44 am   BACKBONE|DICT|INTERRES
    85   44   45 1    
    86   44  110 1    
    87   45   46 1    
    88   45   47 1    
    89   45  111 1    
    90   46  112 1    
    91   46  113 1    
    92   46  114 1    
    93   47   48 2    
    94   47   49 am   BACKBONE|DICT|INTERRES
    95   49   50 1    
    96   49  115 1    
    97   50   51 1    
    98   50   52 1    
    99   50  116 1    
   100   51  117 1    
   101   51  118 1    
   102   51  119 1    
   103   52   53 2    
   104   52   54 am   BACKBONE|DICT|INTERRES
   105   54   55 1    
   106   54  120 1    
   107   55   56 1    
   108   55   57 1    
   109   55  121 1    
   110   56  122 1    
   111   56  123 1    
   112   56  124 1    
   113   57   58 2    
   114   57   59 am   BACKBONE|DICT|INTERRES
   115   59   60 1    
   116   59  125 1    
   117   60   61 1    
   118   60   62 1    
   119   60  126 1    
   120   61  127 1    
   121   61  128 1    
   122   61  129 1    
   123   62   63 2    
   124   62   64 am   BACKBONE|DICT|INTERRES
   125   64   65 1    
   126   64  130 1    
   127   65   66 1    
   128   65   69 1    
   129   65  131 1    
   130   66   67 am   BACKBONE|DICT|INTERRES
   131   66   68 2    
   132   67  132 1    
   133   67  133 1    
   134   69   70 1    
   135   69  134 1    
   136   69  135 1    
   137   70   71 1    
   138   71  136 1    
   139   71  137 1    
@<TRIPOS>SUBSTRUCTURE
     1 UNK         1 GROUP             0       ****    0 ROOT    
