@<TRIPOS>MOLECULE
3R137
137   139    1
SMALL
USER_CHARGES


@<TRIPOS>ATOM
      1 CA         25.5561   -5.9289    0.8380 C.3       0 UNK        -0.2020 
      2 C          25.7665   -4.4283    0.9729 C.2       0 UNK         0.4855 
      3 O          25.1627   -3.8012    1.8435 O.2       0 UNK        -0.5197 
      4 N          26.6189   -3.8478    0.1182 N.am      1 UNK        -0.4892 
      5 CA         26.9522   -2.4152    0.1077 C.3       1 UNK         0.0835 
      6 C6         28.2192   -2.1219   -0.7300 C.3       12 UNK        -0.0855 
      7 S7         29.6831   -3.0385   -0.1546 S.3       12 UNK        -0.2931 
      8 C8         30.9919   -2.2081   -1.1221 C.3       12 UNK         0.0378 
      9 C9         31.0603   -2.5549   -2.6132 C.ar      12 UNK        -0.0802 
     10 C10        31.9653   -1.8437   -3.4066 C.ar      12 UNK        -0.0944 
     11 C11        32.1363   -2.1523   -4.7586 C.ar      12 UNK        -0.0787 
     12 C12        31.3738   -3.1733   -5.3324 C.ar      12 UNK        -0.0862 
     13 C13        30.4621   -3.8976   -4.5570 C.ar      12 UNK        -0.0733 
     14 C14        30.3092   -3.5827   -3.2024 C.ar      12 UNK        -0.0832 
     15 C15        29.7095   -5.0820   -5.1533 C.3       12 UNK         0.0240 
     16 S16        28.6915   -4.6430   -6.5964 S.3       12 UNK        -0.2522 
     17 C17        27.2927   -3.7593   -5.8294 C.3       12 UNK        -0.0967 
     18 CA         26.8302   -2.5728   -6.7111 C.3       5 UNK         0.0660 
     19 N          25.4314   -2.2198   -6.4821 N.am      5 UNK        -0.4015 
     20 C          24.4686   -2.2776   -7.4137 C.2       4 UNK         0.4946 
     21 O          24.5976   -2.8432   -8.4998 O.2       4 UNK        -0.5353 
     22 CA         23.1314   -1.5683   -7.1130 C.3       4 UNK         0.0277 
     23 CB         22.0447   -2.5999   -6.7669 C.3       4 UNK        -0.1981 
     24 N          23.1905   -0.5658   -6.0448 N.am      4 UNK        -0.4209 
     25 C          24.0115    0.4940   -5.9930 C.2       3 UNK         0.4942 
     26 O          24.7958    0.8019   -6.8898 O.2       3 UNK        -0.5208 
     27 CA         24.0394    1.2790   -4.6692 C.3       3 UNK         0.0250 
     28 CB         23.0792    2.4765   -4.7340 C.3       3 UNK        -0.1990 
     29 N          23.7275    0.4607   -3.4883 N.am      3 UNK        -0.4232 
     30 C          24.3876   -0.6458   -3.1148 C.2       2 UNK         0.4993 
     31 O          25.3470   -1.1178   -3.7358 O.2       2 UNK        -0.5286 
     32 CA         23.8257   -1.3973   -1.8996 C.3       2 UNK         0.0209 
     33 CB         22.7609   -2.4103   -2.3517 C.3       2 UNK        -0.1931 
     34 N          24.8895   -2.1123   -1.1988 N.am      2 UNK        -0.4546 
     35 C          25.7938   -1.5312   -0.3996 C.2       1 UNK         0.5154 
     36 O          25.7520   -0.3429   -0.0758 O.2       1 UNK        -0.5181 
     37 C          27.7138   -1.3265   -6.5249 C.2       5 UNK         0.5014 
     38 O          28.4710   -0.9907   -7.4337 O.2       5 UNK        -0.5248 
     39 N          27.5929   -0.6498   -5.3727 N.am      6 UNK        -0.4434 
     40 CA         28.5041    0.4107   -4.9296 C.3       6 UNK         0.0363 
     41 CB         28.1991    0.7531   -3.4636 C.3       6 UNK        -0.1936 
     42 C          28.5136    1.6897   -5.7864 C.2       6 UNK         0.5081 
     43 O          29.5328    2.3797   -5.8001 O.2       6 UNK        -0.5248 
     44 N          27.3995    2.0033   -6.4611 N.am      7 UNK        -0.4718 
     45 CA         27.2973    3.1308   -7.3938 C.3       7 UNK         0.0273 
     46 CB         26.0168    3.9293   -7.0963 C.3       7 UNK        -0.1935 
     47 C          27.3122    2.6587   -8.8568 C.2       7 UNK         0.5018 
     48 O          27.6544    3.4516   -9.7351 O.2       7 UNK        -0.5186 
     49 N          26.9315    1.3964   -9.1015 N.am      8 UNK        -0.4240 
     50 CA         26.9385    0.7651  -10.4213 C.3       8 UNK         0.0235 
     51 CB         26.0819   -0.5089  -10.3853 C.3       8 UNK        -0.2000 
     52 C          28.3609    0.4520  -10.9130 C.2       8 UNK         0.4941 
     53 O          28.6689    0.7196  -12.0758 O.2       8 UNK        -0.5273 
     54 N          29.1992   -0.1039  -10.0284 N.am      9 UNK        -0.4262 
     55 CA         30.6188   -0.3498  -10.2761 C.3       9 UNK         0.0264 
     56 CB         31.1131   -1.4445   -9.3141 C.3       9 UNK        -0.1955 
     57 C          31.4343    0.9393  -10.0887 C.2       9 UNK         0.5031 
     58 O          31.0193    1.8339   -9.3481 O.2       9 UNK        -0.5390 
     59 N          32.6023    0.9977  -10.7418 N.am      10 UNK        -0.4204 
     60 CA         33.5620    2.0980  -10.6027 C.3       10 UNK         0.0237 
     61 CB         34.5994    2.0221  -11.7353 C.3       10 UNK        -0.1985 
     62 C          34.2596    2.1128   -9.2300 C.2       10 UNK         0.4970 
     63 O          34.5612    3.1947   -8.7237 O.2       10 UNK        -0.4914 
     64 N          34.4935    0.9183   -8.6660 N.am      11 UNK        -0.4285 
     65 CA         35.1621    0.6751   -7.3774 C.3       11 UNK         0.1007 
     66 C          36.6261    1.2175   -7.3329 C.2       11 UNK         0.5703 
     67 N          37.1753    1.5142   -6.1618 N.am      11 UNK        -0.7361 
     68 O          37.3004    1.3142   -8.3574 O.2       11 UNK        -0.4986 
     69 C69        34.2803    1.0875   -6.1589 C.3       12 UNK        -0.0947 
     70 S70        32.6719    0.2243   -6.0956 S.3       12 UNK        -0.2240 
     71 C71        33.2050   -1.4319   -5.5662 C.3       12 UNK         0.0194 
     72 H72        25.8320   -6.4309    1.7650 H         1 UNK         0.0906 
     73 H73        24.5077   -6.1439    0.6331 H         1 UNK         0.0906 
     74 H74        26.1534   -6.3546    0.0318 H         1 UNK         0.0906 
     75 H75        27.1167   -4.4157   -0.5529 H         1 UNK         0.3140 
     76 H76        27.1498   -2.1121    1.1387 H         1 UNK         0.1085 
     77 H77        28.4565   -1.0573   -0.6809 H         1 UNK         0.0836 
     78 H78        28.0488   -2.3545   -1.7832 H         1 UNK         0.0836 
     79 H79        30.8850   -1.1284   -1.0057 H         1 UNK         0.0731 
     80 H80        31.9510   -2.4684   -0.6722 H         1 UNK         0.0731 
     81 H81        32.5677   -1.0625   -2.9625 H         1 UNK         0.1312 
     82 H82        31.5118   -3.4288   -6.3743 H         1 UNK         0.1406 
     83 H83        29.6269   -4.1702   -2.6058 H         1 UNK         0.1631 
     84 H84        29.0760   -5.5649   -4.4076 H         1 UNK         0.0717 
     85 H85        30.4388   -5.8322   -5.4622 H         1 UNK         0.0717 
     86 H86        26.4827   -4.4827   -5.7225 H         1 UNK         0.0934 
     87 H87        27.5423   -3.4399   -4.8154 H         1 UNK         0.0934 
     88 H88        26.9475   -2.8702   -7.7557 H         1 UNK         0.0739 
     89 H89        25.2277   -1.7588   -5.6013 H         1 UNK         0.3093 
     90 H90        22.8366   -1.0483   -8.0267 H         1 UNK         0.0818 
     91 H91        21.0687   -2.1278   -6.6533 H         1 UNK         0.0819 
     92 H92        21.9491   -3.3468   -7.5565 H         1 UNK         0.0819 
     93 H93        22.2726   -3.1315   -5.8421 H         1 UNK         0.0819 
     94 H94        22.5891   -0.7266   -5.2507 H         1 UNK         0.3041 
     95 H95        25.0534    1.6627   -4.5418 H         1 UNK         0.0784 
     96 H96        23.2987    3.1091   -5.5951 H         1 UNK         0.0793 
     97 H97        22.0396    2.1581   -4.8214 H         1 UNK         0.0793 
     98 H98        23.1658    3.1032   -3.8461 H         1 UNK         0.0793 
     99 H99        22.9441    0.7682   -2.9289 H         1 UNK         0.3024 
    100 H100       23.3705   -0.6801   -1.2123 H         1 UNK         0.1171 
    101 H101       21.9243   -1.9107   -2.8419 H         1 UNK         0.0786 
    102 H102       22.3530   -2.9605   -1.5034 H         1 UNK         0.0786 
    103 H103       23.1664   -3.1367   -3.0578 H         1 UNK         0.0786 
    104 H104       25.0206   -3.0848   -1.4341 H         1 UNK         0.2977 
    105 H105       26.8891   -0.9394   -4.6962 H         1 UNK         0.3127 
    106 H106       29.5150   -0.0024   -4.9726 H         1 UNK         0.0770 
    107 H107       27.1846    1.1318   -3.3373 H         1 UNK         0.0814 
    108 H108       28.8836    1.5149   -3.0879 H         1 UNK         0.0814 
    109 H109       28.3127   -0.1227   -2.8285 H         1 UNK         0.0814 
    110 H110       26.5888    1.3955   -6.4024 H         1 UNK         0.2983 
    111 H111       28.1457    3.8071   -7.2680 H         1 UNK         0.0947 
    112 H112       25.9745    4.8317   -7.7074 H         1 UNK         0.0806 
    113 H113       25.9752    4.2419   -6.0529 H         1 UNK         0.0806 
    114 H114       25.1172    3.3537   -7.3125 H         1 UNK         0.0806 
    115 H115       26.6268    0.8297   -8.3225 H         1 UNK         0.3000 
    116 H116       26.4835    1.4594  -11.1312 H         1 UNK         0.0850 
    117 H117       26.0225   -0.9672  -11.3733 H         1 UNK         0.0810 
    118 H118       25.0621   -0.2952  -10.0642 H         1 UNK         0.0810 
    119 H119       26.4976   -1.2539   -9.7063 H         1 UNK         0.0810 
    120 H120       28.8768   -0.2820   -9.0782 H         1 UNK         0.3040 
    121 H121       30.7429   -0.7035  -11.3019 H         1 UNK         0.0766 
    122 H122       32.1559   -1.6994   -9.5046 H         1 UNK         0.0812 
    123 H123       30.5300   -2.3595   -9.4202 H         1 UNK         0.0812 
    124 H124       31.0406   -1.1260   -8.2734 H         1 UNK         0.0812 
    125 H125       32.8672    0.2313  -11.3446 H         1 UNK         0.3205 
    126 H126       33.0170    3.0392  -10.7051 H         1 UNK         0.0754 
    127 H127       35.3111    2.8462  -11.6664 H         1 UNK         0.0769 
    128 H128       34.1243    2.0881  -12.7144 H         1 UNK         0.0769 
    129 H129       35.1724    1.0945  -11.7001 H         1 UNK         0.0769 
    130 H130       34.2273    0.0922   -9.1782 H         1 UNK         0.2981 
    131 H131       35.2898   -0.4063   -7.3298 H         1 UNK         0.0541 
    132 H132       36.6553    1.4264   -5.3035 H         1 UNK         0.3459 
    133 H133       38.1285    1.8414   -6.1390 H         1 UNK         0.3459 
    134 H134       34.0886    2.1614   -6.1765 H         1 UNK         0.0612 
    135 H135       34.7889    0.8897   -5.2148 H         1 UNK         0.0612 
    136 H136       33.4771   -2.0126   -6.4487 H         1 UNK         0.0624 
    137 H137       34.1093   -1.3570   -4.9607 H         1 UNK         0.0624 
@<TRIPOS>BOND
     1    1    2 1    
     2    1   72 1    
     3    1   73 1    
     4    1   74 1    
     5    2    3 2    
     6    2    4 am   BACKBONE|DICT|INTERRES
     7    4    5 1    
     8    4   75 1    
     9    5    6 1    
    10    5   35 1    
    11    5   76 1    
    12    6    7 1    
    13    6   77 1    
    14    6   78 1    
    15    7    8 1    
    16    8    9 1    
    17    8   79 1    
    18    8   80 1    
    19    9   10 ar   
    20    9   14 ar   
    21   10   11 ar   
    22   10   81 1    
    23   11   12 ar   
    24   11   71 1    
    25   12   13 ar   
    26   12   82 1    
    27   13   14 ar   
    28   13   15 1    
    29   14   83 1    
    30   15   16 1    
    31   15   84 1    
    32   15   85 1    
    33   16   17 1    
    34   17   18 1    
    35   17   86 1    
    36   17   87 1    
    37   18   19 1    
    38   18   37 1    
    39   18   88 1    
    40   19   20 am   BACKBONE|DICT|INTERRES
    41   19   89 1    
    42   20   21 2    
    43   20   22 1    
    44   22   23 1    
    45   22   24 1    
    46   22   90 1    
    47   23   91 1    
    48   23   92 1    
    49   23   93 1    
    50   24   25 am   BACKBONE|DICT|INTERRES
    51   24   94 1    
    52   25   26 2    
    53   25   27 1    
    54   27   28 1    
    55   27   29 1    
    56   27   95 1    
    57   28   96 1    
    58   28   97 1    
    59   28   98 1    
    60   29   30 am   BACKBONE|DICT|INTERRES
    61   29   99 1    
    62   30   31 2    
    63   30   32 1    
    64   32   33 1    
    65   32   34 1    
    66   32  100 1    
    67   33  101 1    
    68   33  102 1    
    69   33  103 1    
    70   34   35 am   BACKBONE|DICT|INTERRES
    71   34  104 1    
    72   35   36 2    
    73   37   38 2    
    74   37   39 am   BACKBONE|DICT|INTERRES
    75   39   40 1    
    76   39  105 1    
    77   40   41 1    
    78   40   42 1    
    79   40  106 1    
    80   41  107 1    
    81   41  108 1    
    82   41  109 1    
    83   42   43 2    
    84   42   44 am   BACKBONE|DICT|INTERRES
    85   44   45 1    
    86   44  110 1    
    87   45   46 1    
    88   45   47 1    
    89   45  111 1    
    90   46  112 1    
    91   46  113 1    
    92   46  114 1    
    93   47   48 2    
    94   47   49 am   BACKBONE|DICT|INTERRES
    95   49   50 1    
    96   49  115 1    
    97   50   51 1    
    98   50   52 1    
    99   50  116 1    
   100   51  117 1    
   101   51  118 1    
   102   51  119 1    
   103   52   53 2    
   104   52   54 am   BACKBONE|DICT|INTERRES
   105   54   55 1    
   106   54  120 1    
   107   55   56 1    
   108   55   57 1    
   109   55  121 1    
   110   56  122 1    
   111   56  123 1    
   112   56  124 1    
   113   57   58 2    
   114   57   59 am   BACKBONE|DICT|INTERRES
   115   59   60 1    
   116   59  125 1    
   117   60   61 1    
   118   60   62 1    
   119   60  126 1    
   120   61  127 1    
   121   61  128 1    
   122   61  129 1    
   123   62   63 2    
   124   62   64 am   BACKBONE|DICT|INTERRES
   125   64   65 1    
   126   64  130 1    
   127   65   66 1    
   128   65   69 1    
   129   65  131 1    
   130   66   67 am   BACKBONE|DICT|INTERRES
   131   66   68 2    
   132   67  132 1    
   133   67  133 1    
   134   69   70 1    
   135   69  134 1    
   136   69  135 1    
   137   70   71 1    
   138   71  136 1    
   139   71  137 1    
@<TRIPOS>SUBSTRUCTURE
     1 UNK         1 GROUP             0       ****    0 ROOT    
