@<TRIPOS>MOLECULE
3R137
137   139    1
SMALL
USER_CHARGES


@<TRIPOS>ATOM
      1 CA         25.7661    0.5686    3.8387 C.3       0 UNK        -0.2020 
      2 C          26.0435   -0.3279    2.6408 C.2       0 UNK         0.4855 
      3 O          26.3272   -1.5126    2.8217 O.2       0 UNK        -0.5197 
      4 N          25.9696    0.2347    1.4258 N.am      1 UNK        -0.4892 
      5 CA         26.1431   -0.4463    0.1341 C.3       1 UNK         0.0835 
      6 C6         27.5462   -1.1047   -0.0110 C.3       12 UNK        -0.0855 
      7 S7         28.1225   -1.1594   -1.7371 S.3       12 UNK        -0.2931 
      8 C8         29.8273   -1.7491   -1.4984 C.3       12 UNK         0.0378 
      9 C9         30.4778   -2.0379   -2.8405 C.ar      12 UNK        -0.0802 
     10 C10        31.4666   -1.1949   -3.3586 C.ar      12 UNK        -0.0944 
     11 C11        32.0122   -1.4420   -4.6225 C.ar      12 UNK        -0.0787 
     12 C12        31.5622   -2.5374   -5.3656 C.ar      12 UNK        -0.0862 
     13 C13        30.5782   -3.3861   -4.8549 C.ar      12 UNK        -0.0733 
     14 C14        30.0567   -3.1435   -3.5824 C.ar      12 UNK        -0.0832 
     15 C15        30.0556   -4.5485   -5.6852 C.3       12 UNK         0.0240 
     16 S16        28.9519   -3.9953   -7.0267 S.3       12 UNK        -0.2522 
     17 C17        27.6311   -3.1177   -6.1246 C.3       12 UNK        -0.0967 
     18 CA         27.2454   -1.7562   -6.7517 C.3       5 UNK         0.0660 
     19 N          25.9443   -1.3226   -6.2333 N.am      5 UNK        -0.4015 
     20 C          25.1862   -0.3509   -6.7619 C.2       4 UNK         0.4946 
     21 O          25.5762    0.3879   -7.6648 O.2       4 UNK        -0.5353 
     22 CA         23.7619   -0.1645   -6.1912 C.3       4 UNK         0.0277 
     23 CB         22.7768    0.4020   -7.2366 C.3       4 UNK        -0.1981 
     24 N          23.2209   -1.3810   -5.5686 N.am      4 UNK        -0.4209 
     25 C          23.0308   -2.5781   -6.1476 C.2       3 UNK         0.4942 
     26 O          23.1388   -2.7751   -7.3588 O.2       3 UNK        -0.5208 
     27 CA         22.7009   -3.7687   -5.2196 C.3       3 UNK         0.0250 
     28 CB         23.3950   -5.0642   -5.6928 C.3       3 UNK        -0.1990 
     29 N          22.9747   -3.5575   -3.7872 N.am      3 UNK        -0.4232 
     30 C          24.1390   -3.2212   -3.2100 C.2       2 UNK         0.4993 
     31 O          25.1653   -2.9260   -3.8312 O.2       2 UNK        -0.5286 
     32 CA         24.1472   -3.2172   -1.6775 C.3       2 UNK         0.0209 
     33 CB         24.4947   -4.6141   -1.1356 C.3       2 UNK        -0.1931 
     34 N          25.1375   -2.2575   -1.1972 N.am      2 UNK        -0.4546 
     35 C          24.9649   -1.4028   -0.1830 C.2       1 UNK         0.5154 
     36 O          23.9159   -1.3313    0.4648 O.2       1 UNK        -0.5181 
     37 C          28.3352   -0.6649   -6.6169 C.2       5 UNK         0.5014 
     38 O          29.1202   -0.4624   -7.5492 O.2       5 UNK        -0.5248 
     39 N          28.3161    0.0728   -5.4952 N.am      6 UNK        -0.4434 
     40 CA         29.1549    1.2552   -5.2784 C.3       6 UNK         0.0363 
     41 CB         29.1209    1.6685   -3.7990 C.3       6 UNK        -0.1936 
     42 C          28.7464    2.4432   -6.1642 C.2       6 UNK         0.5081 
     43 O          29.6217    3.1318   -6.6857 O.2       6 UNK        -0.5248 
     44 N          27.4331    2.6564   -6.3361 N.am      7 UNK        -0.4718 
     45 CA         26.8659    3.7296   -7.1629 C.3       7 UNK         0.0273 
     46 CB         25.3614    3.8635   -6.8809 C.3       7 UNK        -0.1935 
     47 C          27.1295    3.5248   -8.6644 C.2       7 UNK         0.5018 
     48 O          27.3818    4.4977   -9.3754 O.2       7 UNK        -0.5186 
     49 N          27.1203    2.2590   -9.1037 N.am      8 UNK        -0.4240 
     50 CA         27.5410    1.8149  -10.4345 C.3       8 UNK         0.0235 
     51 CB         27.0746    0.3638  -10.6412 C.3       8 UNK        -0.2000 
     52 C          29.0605    1.9264  -10.6724 C.2       8 UNK         0.4941 
     53 O          29.4883    1.8047  -11.8209 O.2       8 UNK        -0.5273 
     54 N          29.8396    2.1464   -9.6006 N.am      9 UNK        -0.4262 
     55 CA         31.2975    2.2882   -9.5620 C.3       9 UNK         0.0264 
     56 CB         31.7464    3.5682  -10.2987 C.3       9 UNK        -0.1955 
     57 C          32.0322    1.0248  -10.0416 C.2       9 UNK         0.5031 
     58 O          33.0372    1.1279  -10.7488 O.2       9 UNK        -0.5390 
     59 N          31.5400   -0.1526   -9.6254 N.am      10 UNK        -0.4204 
     60 CA         32.0872   -1.4636  -10.0006 C.3       10 UNK         0.0237 
     61 CB         31.1436   -2.5618   -9.4940 C.3       10 UNK        -0.1985 
     62 C          33.5331   -1.7192   -9.5265 C.2       10 UNK         0.4970 
     63 O          34.2056   -2.5826  -10.0911 O.2       10 UNK        -0.4914 
     64 N          33.9892   -0.9550   -8.5265 N.am      11 UNK        -0.4285 
     65 CA         35.3856   -0.8969   -8.0692 C.3       11 UNK         0.1007 
     66 C          36.3421   -0.1440   -9.0422 C.2       11 UNK         0.5703 
     67 N          35.8573    0.5672  -10.0549 N.am      11 UNK        -0.7361 
     68 O          37.5578   -0.2157   -8.8780 O.2       11 UNK        -0.4986 
     69 C69        35.4885   -0.3179   -6.6318 C.3       12 UNK        -0.0947 
     70 S70        34.6574   -1.3719   -5.3993 S.3       12 UNK        -0.2240 
     71 C71        33.0630   -0.5156   -5.2113 C.3       12 UNK         0.0194 
     72 H72        25.5455    1.5935    3.5408 H         1 UNK         0.0906 
     73 H73        24.9139    0.1886    4.4014 H         1 UNK         0.0906 
     74 H74        26.6309    0.5876    4.5014 H         1 UNK         0.0906 
     75 H75        25.7005    1.2069    1.3581 H         1 UNK         0.3140 
     76 H76        26.0698    0.3524   -0.6062 H         1 UNK         0.1085 
     77 H77        27.5624   -2.1094    0.4168 H         1 UNK         0.0836 
     78 H78        28.2840   -0.5300    0.5516 H         1 UNK         0.0836 
     79 H79        30.3962   -1.0024   -0.9421 H         1 UNK         0.0731 
     80 H80        29.8220   -2.6566   -0.8927 H         1 UNK         0.0731 
     81 H81        31.7963   -0.3377   -2.7879 H         1 UNK         0.1312 
     82 H82        31.9758   -2.7239   -6.3463 H         1 UNK         0.1406 
     83 H83        29.2866   -3.7896   -3.1822 H         1 UNK         0.1631 
     84 H84        29.5223   -5.2645   -5.0579 H         1 UNK         0.0717 
     85 H85        30.8966   -5.0902   -6.1205 H         1 UNK         0.0717 
     86 H86        26.7658   -3.7828   -6.1366 H         1 UNK         0.0934 
     87 H87        27.8748   -2.9933   -5.0710 H         1 UNK         0.0934 
     88 H88        27.1052   -1.9186   -7.8228 H         1 UNK         0.0739 
     89 H89        25.5695   -1.8685   -5.4618 H         1 UNK         0.3093 
     90 H90        23.8547    0.5725   -5.3924 H         1 UNK         0.0818 
     91 H91        21.7802    0.5303   -6.8146 H         1 UNK         0.0819 
     92 H92        23.1007    1.3779   -7.5981 H         1 UNK         0.0819 
     93 H93        22.6915   -0.2489   -8.1071 H         1 UNK         0.0819 
     94 H94        23.0995   -1.3374   -4.5665 H         1 UNK         0.3041 
     95 H95        21.6237   -3.9199   -5.3046 H         1 UNK         0.0784 
     96 H96        23.1010   -5.3234   -6.7108 H         1 UNK         0.0793 
     97 H97        24.4810   -4.9656   -5.6827 H         1 UNK         0.0793 
     98 H98        23.1303   -5.9105   -5.0590 H         1 UNK         0.0793 
     99 H99        22.1905   -3.7507   -3.1784 H         1 UNK         0.3024 
    100 H100       23.1510   -2.9335   -1.3296 H         1 UNK         0.1171 
    101 H101       23.7729   -5.3590   -1.4733 H         1 UNK         0.0786 
    102 H102       24.4880   -4.6278   -0.0455 H         1 UNK         0.0786 
    103 H103       25.4814   -4.9401   -1.4677 H         1 UNK         0.0786 
    104 H104       25.9949   -2.2125   -1.7374 H         1 UNK         0.2977 
    105 H105       27.6623   -0.1692   -4.7650 H         1 UNK         0.3127 
    106 H106       30.1840    0.9915   -5.5325 H         1 UNK         0.0770 
    107 H107       29.6892    2.5854   -3.6357 H         1 UNK         0.0814 
    108 H108       29.5675    0.9054   -3.1655 H         1 UNK         0.0814 
    109 H109       28.1044    1.8470   -3.4468 H         1 UNK         0.0814 
    110 H110       26.7800    2.0197   -5.9050 H         1 UNK         0.2983 
    111 H111       27.3494    4.6652   -6.8728 H         1 UNK         0.0947 
    112 H112       24.9285    4.6798   -7.4608 H         1 UNK         0.0806 
    113 H113       25.1711    4.0780   -5.8292 H         1 UNK         0.0806 
    114 H114       24.8190    2.9561   -7.1434 H         1 UNK         0.0806 
    115 H115       26.7910    1.5340   -8.4680 H         1 UNK         0.3000 
    116 H116       27.0471    2.4471  -11.1752 H         1 UNK         0.0850 
    117 H117       27.3318    0.0062  -11.6391 H         1 UNK         0.0810 
    118 H118       25.9933    0.2754  -10.5333 H         1 UNK         0.0810 
    119 H119       27.5380   -0.3124   -9.9215 H         1 UNK         0.0810 
    120 H120       29.3825    2.2345   -8.7011 H         1 UNK         0.3040 
    121 H121       31.5624    2.4080   -8.5107 H         1 UNK         0.0766 
    122 H122       31.2209    4.4459   -9.9223 H         1 UNK         0.0812 
    123 H123       32.8135    3.7455  -10.1592 H         1 UNK         0.0812 
    124 H124       31.5663    3.5029  -11.3721 H         1 UNK         0.0812 
    125 H125       30.7135   -0.1569   -9.0347 H         1 UNK         0.3205 
    126 H126       32.1021   -1.5088  -11.0915 H         1 UNK         0.0754 
    127 H127       31.5145   -3.5555   -9.7485 H         1 UNK         0.0769 
    128 H128       30.1488   -2.4644   -9.9296 H         1 UNK         0.0769 
    129 H129       31.0357   -2.5172   -8.4119 H         1 UNK         0.0769 
    130 H130       33.3671   -0.2662   -8.1364 H         1 UNK         0.2981 
    131 H131       35.7576   -1.9227   -8.0345 H         1 UNK         0.0541 
    132 H132       34.8588    0.6482  -10.2205 H         1 UNK         0.3459 
    133 H133       36.5007    1.0387  -10.6701 H         1 UNK         0.3459 
    134 H134       35.0850    0.6953   -6.5885 H         1 UNK         0.0612 
    135 H135       36.5331   -0.2405   -6.3244 H         1 UNK         0.0612 
    136 H136       32.7083   -0.1596   -6.1786 H         1 UNK         0.0624 
    137 H137       33.2038    0.3684   -4.5875 H         1 UNK         0.0624 
@<TRIPOS>BOND
     1    1    2 1    
     2    1   72 1    
     3    1   73 1    
     4    1   74 1    
     5    2    3 2    
     6    2    4 am   BACKBONE|DICT|INTERRES
     7    4    5 1    
     8    4   75 1    
     9    5    6 1    
    10    5   35 1    
    11    5   76 1    
    12    6    7 1    
    13    6   77 1    
    14    6   78 1    
    15    7    8 1    
    16    8    9 1    
    17    8   79 1    
    18    8   80 1    
    19    9   10 ar   
    20    9   14 ar   
    21   10   11 ar   
    22   10   81 1    
    23   11   12 ar   
    24   11   71 1    
    25   12   13 ar   
    26   12   82 1    
    27   13   14 ar   
    28   13   15 1    
    29   14   83 1    
    30   15   16 1    
    31   15   84 1    
    32   15   85 1    
    33   16   17 1    
    34   17   18 1    
    35   17   86 1    
    36   17   87 1    
    37   18   19 1    
    38   18   37 1    
    39   18   88 1    
    40   19   20 am   BACKBONE|DICT|INTERRES
    41   19   89 1    
    42   20   21 2    
    43   20   22 1    
    44   22   23 1    
    45   22   24 1    
    46   22   90 1    
    47   23   91 1    
    48   23   92 1    
    49   23   93 1    
    50   24   25 am   BACKBONE|DICT|INTERRES
    51   24   94 1    
    52   25   26 2    
    53   25   27 1    
    54   27   28 1    
    55   27   29 1    
    56   27   95 1    
    57   28   96 1    
    58   28   97 1    
    59   28   98 1    
    60   29   30 am   BACKBONE|DICT|INTERRES
    61   29   99 1    
    62   30   31 2    
    63   30   32 1    
    64   32   33 1    
    65   32   34 1    
    66   32  100 1    
    67   33  101 1    
    68   33  102 1    
    69   33  103 1    
    70   34   35 am   BACKBONE|DICT|INTERRES
    71   34  104 1    
    72   35   36 2    
    73   37   38 2    
    74   37   39 am   BACKBONE|DICT|INTERRES
    75   39   40 1    
    76   39  105 1    
    77   40   41 1    
    78   40   42 1    
    79   40  106 1    
    80   41  107 1    
    81   41  108 1    
    82   41  109 1    
    83   42   43 2    
    84   42   44 am   BACKBONE|DICT|INTERRES
    85   44   45 1    
    86   44  110 1    
    87   45   46 1    
    88   45   47 1    
    89   45  111 1    
    90   46  112 1    
    91   46  113 1    
    92   46  114 1    
    93   47   48 2    
    94   47   49 am   BACKBONE|DICT|INTERRES
    95   49   50 1    
    96   49  115 1    
    97   50   51 1    
    98   50   52 1    
    99   50  116 1    
   100   51  117 1    
   101   51  118 1    
   102   51  119 1    
   103   52   53 2    
   104   52   54 am   BACKBONE|DICT|INTERRES
   105   54   55 1    
   106   54  120 1    
   107   55   56 1    
   108   55   57 1    
   109   55  121 1    
   110   56  122 1    
   111   56  123 1    
   112   56  124 1    
   113   57   58 2    
   114   57   59 am   BACKBONE|DICT|INTERRES
   115   59   60 1    
   116   59  125 1    
   117   60   61 1    
   118   60   62 1    
   119   60  126 1    
   120   61  127 1    
   121   61  128 1    
   122   61  129 1    
   123   62   63 2    
   124   62   64 am   BACKBONE|DICT|INTERRES
   125   64   65 1    
   126   64  130 1    
   127   65   66 1    
   128   65   69 1    
   129   65  131 1    
   130   66   67 am   BACKBONE|DICT|INTERRES
   131   66   68 2    
   132   67  132 1    
   133   67  133 1    
   134   69   70 1    
   135   69  134 1    
   136   69  135 1    
   137   70   71 1    
   138   71  136 1    
   139   71  137 1    
@<TRIPOS>SUBSTRUCTURE
     1 UNK         1 GROUP             0       ****    0 ROOT    
