@<TRIPOS>MOLECULE
3R137
137   139    1
SMALL
USER_CHARGES


@<TRIPOS>ATOM
      1 CA         25.8048   -6.1743    0.1097 C.3       0 UNK        -0.2020 
      2 C          26.6046   -5.9013   -1.1604 C.2       0 UNK         0.4855 
      3 O          26.5490   -6.7003   -2.0922 O.2       0 UNK        -0.5197 
      4 N          27.3538   -4.7947   -1.2550 N.am      1 UNK        -0.4892 
      5 CA         27.5047   -3.7348   -0.2436 C.3       1 UNK         0.0835 
      6 C6         28.9304   -3.1238   -0.2387 C.3       12 UNK        -0.0855 
      7 S7         30.2178   -4.3971    0.0270 S.3       12 UNK        -0.2931 
      8 C8         31.6407   -3.7432   -0.9209 C.3       12 UNK         0.0378 
      9 C9         31.3961   -3.4954   -2.4113 C.ar      12 UNK        -0.0802 
     10 C10        32.2330   -2.6024   -3.0883 C.ar      12 UNK        -0.0944 
     11 C11        32.0294   -2.3127   -4.4406 C.ar      12 UNK        -0.0787 
     12 C12        30.9526   -2.8988   -5.1127 C.ar      12 UNK        -0.0862 
     13 C13        30.1138   -3.8033   -4.4549 C.ar      12 UNK        -0.0733 
     14 C14        30.3659   -4.1263   -3.1198 C.ar      12 UNK        -0.0832 
     15 C15        28.9308   -4.4264   -5.1801 C.3       12 UNK         0.0240 
     16 S16        27.3518   -3.7296   -4.5856 S.3       12 UNK        -0.2522 
     17 C17        26.3803   -3.6750   -6.1348 C.3       12 UNK        -0.0967 
     18 CA         26.2994   -2.3050   -6.8719 C.3       5 UNK         0.0660 
     19 N          25.1573   -1.4828   -6.4582 N.am      5 UNK        -0.4015 
     20 C          24.6357   -0.5111   -7.2254 C.2       4 UNK         0.4946 
     21 O          25.0545   -0.2302   -8.3492 O.2       4 UNK        -0.5353 
     22 CA         23.4721    0.3055   -6.6399 C.3       4 UNK         0.0277 
     23 CB         22.1520   -0.4750   -6.7459 C.3       4 UNK        -0.1981 
     24 N          23.6979    0.7081   -5.2516 N.am      4 UNK        -0.4209 
     25 C          24.6687    1.5405   -4.8471 C.2       3 UNK         0.4942 
     26 O          25.4568    2.0963   -5.6092 O.2       3 UNK        -0.5208 
     27 CA         24.8145    1.7535   -3.3301 C.3       3 UNK         0.0250 
     28 CB         23.9421    2.9298   -2.8639 C.3       3 UNK        -0.1990 
     29 N          24.4940    0.5583   -2.5419 N.am      3 UNK        -0.4232 
     30 C          25.1313   -0.6150   -2.6530 C.2       2 UNK         0.4993 
     31 O          26.0617   -0.8180   -3.4376 O.2       2 UNK        -0.5286 
     32 CA         24.5721   -1.7713   -1.8156 C.3       2 UNK         0.0209 
     33 CB         23.4802   -2.5133   -2.6051 C.3       2 UNK        -0.1931 
     34 N          25.6285   -2.7209   -1.4799 N.am      2 UNK        -0.4546 
     35 C          26.4306   -2.6367   -0.4104 C.2       1 UNK         0.5154 
     36 O          26.3329   -1.7521    0.4414 O.2       1 UNK        -0.5181 
     37 C          27.6033   -1.4814   -6.8668 C.2       5 UNK         0.5014 
     38 O          28.4144   -1.6368   -7.7799 O.2       5 UNK        -0.5248 
     39 N          27.7575   -0.5889   -5.8764 N.am      6 UNK        -0.4434 
     40 CA         28.8767    0.3474   -5.7815 C.3       6 UNK         0.0363 
     41 CB         28.8409    1.0695   -4.4272 C.3       6 UNK        -0.1936 
     42 C          28.9169    1.3537   -6.9428 C.2       6 UNK         0.5081 
     43 O          29.9998    1.6458   -7.4516 O.2       6 UNK        -0.5248 
     44 N          27.7424    1.8416   -7.3662 N.am      7 UNK        -0.4718 
     45 CA         27.5742    2.6873   -8.5485 C.3       7 UNK         0.0273 
     46 CB         26.1593    3.2861   -8.5704 C.3       7 UNK        -0.1935 
     47 C          27.8681    1.9326   -9.8539 C.2       7 UNK         0.5018 
     48 O          28.5598    2.4786  -10.7126 O.2       7 UNK        -0.5186 
     49 N          27.3763    0.6890   -9.9707 N.am      8 UNK        -0.4240 
     50 CA         27.6227   -0.1963  -11.1154 C.3       8 UNK         0.0235 
     51 CB         26.7456   -1.4533  -11.0049 C.3       8 UNK        -0.2000 
     52 C          29.1051   -0.5779  -11.2739 C.2       8 UNK         0.4941 
     53 O          29.6146   -0.5712  -12.3949 O.2       8 UNK        -0.5273 
     54 N          29.7769   -0.8683  -10.1511 N.am      9 UNK        -0.4262 
     55 CA         31.2194   -1.1225  -10.0800 C.3       9 UNK         0.0264 
     56 CB         31.5339   -1.8075   -8.7425 C.3       9 UNK        -0.1955 
     57 C          32.0780    0.1477  -10.2308 C.2       9 UNK         0.5031 
     58 O          33.2806    0.0285  -10.4693 O.2       9 UNK        -0.5390 
     59 N          31.4561    1.3243  -10.0686 N.am      10 UNK        -0.4204 
     60 CA         32.0408    2.6677  -10.0832 C.3       10 UNK         0.0237 
     61 CB         32.6232    3.0066  -11.4724 C.3       10 UNK        -0.1985 
     62 C          33.0320    2.9181   -8.9290 C.2       10 UNK         0.4970 
     63 O          33.9699    3.7004   -9.0974 O.2       10 UNK        -0.4914 
     64 N          32.7974    2.2778   -7.7751 N.am      11 UNK        -0.4285 
     65 CA         33.5271    2.5333   -6.5234 C.3       11 UNK         0.1007 
     66 C          32.8372    3.5942   -5.6175 C.2       11 UNK         0.5703 
     67 N          31.5773    3.9467   -5.8525 N.am      11 UNK        -0.7361 
     68 O          33.4647    4.1219   -4.7022 O.2       11 UNK        -0.4986 
     69 C69        33.8729    1.2238   -5.7642 C.3       12 UNK        -0.0947 
     70 S70        32.4392    0.3499   -5.0510 S.3       12 UNK        -0.2240 
     71 C71        32.9832   -1.3773   -5.1695 C.3       12 UNK         0.0194 
     72 H72        25.1603   -7.0429   -0.0246 H         1 UNK         0.0906 
     73 H73        26.4715   -6.3820    0.9462 H         1 UNK         0.0906 
     74 H74        25.1671   -5.3287    0.3654 H         1 UNK         0.0906 
     75 H75        27.8370   -4.6236   -2.1251 H         1 UNK         0.3140 
     76 H76        27.3485   -4.1590    0.7495 H         1 UNK         0.1085 
     77 H77        29.0272   -2.3846    0.5590 H         1 UNK         0.0836 
     78 H78        29.1160   -2.5850   -1.1692 H         1 UNK         0.0836 
     79 H79        31.9597   -2.8141   -0.4457 H         1 UNK         0.0731 
     80 H80        32.4719   -4.4421   -0.8199 H         1 UNK         0.0731 
     81 H81        33.0491   -2.1273   -2.5606 H         1 UNK         0.1312 
     82 H82        30.7673   -2.6546   -6.1484 H         1 UNK         0.1406 
     83 H83        29.7337   -4.8498   -2.6283 H         1 UNK         0.1631 
     84 H84        28.9271   -5.5069   -5.0296 H         1 UNK         0.0717 
     85 H85        29.0326   -4.2653   -6.2545 H         1 UNK         0.0717 
     86 H86        26.7908   -4.4202   -6.8181 H         1 UNK         0.0934 
     87 H87        25.3754   -4.0374   -5.9128 H         1 UNK         0.0934 
     88 H88        26.1165   -2.5554   -7.9193 H         1 UNK         0.0739 
     89 H89        24.8181   -1.6127   -5.5166 H         1 UNK         0.3093 
     90 H90        23.3775    1.2152   -7.2371 H         1 UNK         0.0818 
     91 H91        21.3057    0.1320   -6.4237 H         1 UNK         0.0819 
     92 H92        21.9587   -0.7738   -7.7772 H         1 UNK         0.0819 
     93 H93        22.1643   -1.3824   -6.1408 H         1 UNK         0.0819 
     94 H94        23.0888    0.3097   -4.5527 H         1 UNK         0.3041 
     95 H95        25.8583    2.0053   -3.1336 H         1 UNK         0.0784 
     96 H96        24.1789    3.8356   -3.4243 H         1 UNK         0.0793 
     97 H97        22.8794    2.7282   -3.0047 H         1 UNK         0.0793 
     98 H98        24.1059    3.1526   -1.8094 H         1 UNK         0.0793 
     99 H99        23.7310    0.6422   -1.8850 H         1 UNK         0.3024 
    100 H100       24.1373   -1.3715   -0.8963 H         1 UNK         0.1171 
    101 H101       22.6556   -1.8470   -2.8617 H         1 UNK         0.0786 
    102 H102       23.0601   -3.3330   -2.0215 H         1 UNK         0.0786 
    103 H103       23.8663   -2.9318   -3.5357 H         1 UNK         0.0786 
    104 H104       25.8278   -3.4358   -2.1655 H         1 UNK         0.2977 
    105 H105       27.0802   -0.5773   -5.1179 H         1 UNK         0.3127 
    106 H106       29.7888   -0.2466   -5.8318 H         1 UNK         0.0770 
    107 H107       27.9395    1.6715   -4.3159 H         1 UNK         0.0814 
    108 H108       29.6964    1.7378   -4.3206 H         1 UNK         0.0814 
    109 H109       28.8773    0.3594   -3.6005 H         1 UNK         0.0814 
    110 H110       26.9021    1.6273   -6.8359 H         1 UNK         0.2983 
    111 H111       28.2889    3.5100   -8.4752 H         1 UNK         0.0947 
    112 H112       26.0165    3.9214   -9.4454 H         1 UNK         0.0806 
    113 H113       25.9781    3.9023   -7.6896 H         1 UNK         0.0806 
    114 H114       25.3919    2.5118   -8.5983 H         1 UNK         0.0806 
    115 H115       26.7679    0.3337   -9.2384 H         1 UNK         0.3000 
    116 H116       27.3251    0.3449  -12.0160 H         1 UNK         0.0850 
    117 H117       26.8769   -2.0976  -11.8752 H         1 UNK         0.0810 
    118 H118       25.6877   -1.1959  -10.9482 H         1 UNK         0.0810 
    119 H119       26.9946   -2.0431  -10.1230 H         1 UNK         0.0810 
    120 H120       29.2594   -0.9398   -9.2757 H         1 UNK         0.3040 
    121 H121       31.4905   -1.8032  -10.8896 H         1 UNK         0.0766 
    122 H122       32.5932   -2.0565   -8.6682 H         1 UNK         0.0812 
    123 H123       30.9725   -2.7352   -8.6300 H         1 UNK         0.0812 
    124 H124       31.2874   -1.1580   -7.9014 H         1 UNK         0.0812 
    125 H125       30.4691    1.2954   -9.8471 H         1 UNK         0.3205 
    126 H126       31.2079    3.3497   -9.9060 H         1 UNK         0.0754 
    127 H127       32.9122    4.0566  -11.5308 H         1 UNK         0.0769 
    128 H128       31.8914    2.8297  -12.2608 H         1 UNK         0.0769 
    129 H129       33.5097    2.4129  -11.6969 H         1 UNK         0.0769 
    130 H130       31.9492    1.7256   -7.6901 H         1 UNK         0.2981 
    131 H131       34.4907    2.9767   -6.7802 H         1 UNK         0.0541 
    132 H132       31.0448    3.4760   -6.5697 H         1 UNK         0.3459 
    133 H133       31.1421    4.6428   -5.2690 H         1 UNK         0.3459 
    134 H134       34.5705    1.4364   -4.9522 H         1 UNK         0.0612 
    135 H135       34.4020    0.5482   -6.4382 H         1 UNK         0.0612 
    136 H136       33.0668   -1.6619   -6.2185 H         1 UNK         0.0624 
    137 H137       33.9848   -1.4672   -4.7461 H         1 UNK         0.0624 
@<TRIPOS>BOND
     1    1    2 1    
     2    1   72 1    
     3    1   73 1    
     4    1   74 1    
     5    2    3 2    
     6    2    4 am   BACKBONE|DICT|INTERRES
     7    4    5 1    
     8    4   75 1    
     9    5    6 1    
    10    5   35 1    
    11    5   76 1    
    12    6    7 1    
    13    6   77 1    
    14    6   78 1    
    15    7    8 1    
    16    8    9 1    
    17    8   79 1    
    18    8   80 1    
    19    9   10 ar   
    20    9   14 ar   
    21   10   11 ar   
    22   10   81 1    
    23   11   12 ar   
    24   11   71 1    
    25   12   13 ar   
    26   12   82 1    
    27   13   14 ar   
    28   13   15 1    
    29   14   83 1    
    30   15   16 1    
    31   15   84 1    
    32   15   85 1    
    33   16   17 1    
    34   17   18 1    
    35   17   86 1    
    36   17   87 1    
    37   18   19 1    
    38   18   37 1    
    39   18   88 1    
    40   19   20 am   BACKBONE|DICT|INTERRES
    41   19   89 1    
    42   20   21 2    
    43   20   22 1    
    44   22   23 1    
    45   22   24 1    
    46   22   90 1    
    47   23   91 1    
    48   23   92 1    
    49   23   93 1    
    50   24   25 am   BACKBONE|DICT|INTERRES
    51   24   94 1    
    52   25   26 2    
    53   25   27 1    
    54   27   28 1    
    55   27   29 1    
    56   27   95 1    
    57   28   96 1    
    58   28   97 1    
    59   28   98 1    
    60   29   30 am   BACKBONE|DICT|INTERRES
    61   29   99 1    
    62   30   31 2    
    63   30   32 1    
    64   32   33 1    
    65   32   34 1    
    66   32  100 1    
    67   33  101 1    
    68   33  102 1    
    69   33  103 1    
    70   34   35 am   BACKBONE|DICT|INTERRES
    71   34  104 1    
    72   35   36 2    
    73   37   38 2    
    74   37   39 am   BACKBONE|DICT|INTERRES
    75   39   40 1    
    76   39  105 1    
    77   40   41 1    
    78   40   42 1    
    79   40  106 1    
    80   41  107 1    
    81   41  108 1    
    82   41  109 1    
    83   42   43 2    
    84   42   44 am   BACKBONE|DICT|INTERRES
    85   44   45 1    
    86   44  110 1    
    87   45   46 1    
    88   45   47 1    
    89   45  111 1    
    90   46  112 1    
    91   46  113 1    
    92   46  114 1    
    93   47   48 2    
    94   47   49 am   BACKBONE|DICT|INTERRES
    95   49   50 1    
    96   49  115 1    
    97   50   51 1    
    98   50   52 1    
    99   50  116 1    
   100   51  117 1    
   101   51  118 1    
   102   51  119 1    
   103   52   53 2    
   104   52   54 am   BACKBONE|DICT|INTERRES
   105   54   55 1    
   106   54  120 1    
   107   55   56 1    
   108   55   57 1    
   109   55  121 1    
   110   56  122 1    
   111   56  123 1    
   112   56  124 1    
   113   57   58 2    
   114   57   59 am   BACKBONE|DICT|INTERRES
   115   59   60 1    
   116   59  125 1    
   117   60   61 1    
   118   60   62 1    
   119   60  126 1    
   120   61  127 1    
   121   61  128 1    
   122   61  129 1    
   123   62   63 2    
   124   62   64 am   BACKBONE|DICT|INTERRES
   125   64   65 1    
   126   64  130 1    
   127   65   66 1    
   128   65   69 1    
   129   65  131 1    
   130   66   67 am   BACKBONE|DICT|INTERRES
   131   66   68 2    
   132   67  132 1    
   133   67  133 1    
   134   69   70 1    
   135   69  134 1    
   136   69  135 1    
   137   70   71 1    
   138   71  136 1    
   139   71  137 1    
@<TRIPOS>SUBSTRUCTURE
     1 UNK         1 GROUP             0       ****    0 ROOT    
