@<TRIPOS>MOLECULE
3R137
137   139    1
SMALL
USER_CHARGES


@<TRIPOS>ATOM
      1 CA         24.9969   -0.4171   -8.1126 C.3       0 UNK        -0.2020 
      2 C          24.8965   -1.7651   -7.4158 C.2       0 UNK         0.4855 
      3 O          23.8835   -2.4517   -7.5514 O.2       0 UNK        -0.5197 
      4 N          25.9486   -2.1582   -6.6874 N.am      1 UNK        -0.4892 
      5 CA         26.0287   -3.4296   -5.9614 C.3       1 UNK         0.0835 
      6 C6         27.4607   -3.7273   -5.4650 C.3       12 UNK        -0.0855 
      7 S7         28.6754   -3.9506   -6.8026 S.3       12 UNK        -0.2931 
      8 C8         30.1045   -4.5505   -5.8406 C.3       12 UNK         0.0378 
      9 C9         30.5236   -3.5381   -4.7842 C.ar      12 UNK        -0.0802 
     10 C10        31.2587   -2.4123   -5.1567 C.ar      12 UNK        -0.0944 
     11 C11        31.5872   -1.4327   -4.2166 C.ar      12 UNK        -0.0787 
     12 C12        31.1928   -1.5970   -2.8852 C.ar      12 UNK        -0.0862 
     13 C13        30.4593   -2.7246   -2.4966 C.ar      12 UNK        -0.0733 
     14 C14        30.1389   -3.6976   -3.4486 C.ar      12 UNK        -0.0832 
     15 C15        29.9948   -2.8879   -1.0544 C.3       12 UNK         0.0240 
     16 S16        28.2579   -2.3710   -0.8296 S.3       12 UNK        -0.2522 
     17 C17        28.3771   -0.5779   -1.1396 C.3       12 UNK        -0.0967 
     18 CA         27.9030   -0.2275   -2.5768 C.3       5 UNK         0.0660 
     19 N          26.4366   -0.2573   -2.7264 N.am      5 UNK        -0.4015 
     20 C          25.5742    0.6725   -2.2802 C.2       4 UNK         0.4946 
     21 O          25.8855    1.6161   -1.5525 O.2       4 UNK        -0.5353 
     22 CA         24.1187    0.5467   -2.7424 C.3       4 UNK         0.0277 
     23 CB         24.0049    0.6551   -4.2750 C.3       4 UNK        -0.1981 
     24 N          23.5470   -0.7174   -2.2835 N.am      4 UNK        -0.4209 
     25 C          22.5648   -0.8280   -1.3777 C.2       3 UNK         0.4942 
     26 O          22.0163    0.1425   -0.8520 O.2       3 UNK        -0.5208 
     27 CA         22.1240   -2.2434   -0.9456 C.3       3 UNK         0.0250 
     28 CB         20.5870   -2.3814   -0.8869 C.3       3 UNK        -0.1990 
     29 N          22.7266   -3.3424   -1.7123 N.am      3 UNK        -0.4232 
     30 C          22.5372   -3.6471   -3.0042 C.2       2 UNK         0.4993 
     31 O          21.7756   -3.0471   -3.7650 O.2       2 UNK        -0.5286 
     32 CA         23.3702   -4.8249   -3.5363 C.3       2 UNK         0.0209 
     33 CB         22.4580   -5.9992   -3.9296 C.3       2 UNK        -0.1931 
     34 N          24.2259   -4.4756   -4.6752 N.am      2 UNK        -0.4546 
     35 C          25.0795   -3.4433   -4.7485 C.2       1 UNK         0.5154 
     36 O          25.2028   -2.5710   -3.8816 O.2       1 UNK        -0.5181 
     37 C          28.5079    1.0872   -3.1276 C.2       5 UNK         0.5014 
     38 O          29.3536    1.7172   -2.4887 O.2       5 UNK        -0.5248 
     39 N          28.0241    1.4817   -4.3080 N.am      6 UNK        -0.4434 
     40 CA         28.3490    2.6929   -5.0459 C.3       6 UNK         0.0363 
     41 CB         27.6355    3.9018   -4.4097 C.3       6 UNK        -0.1936 
     42 C          27.8850    2.4664   -6.4899 C.2       6 UNK         0.5081 
     43 O          27.2429    1.4490   -6.7677 O.2       6 UNK        -0.5248 
     44 N          28.2130    3.4101   -7.3816 N.am      7 UNK        -0.4718 
     45 CA         27.8251    3.5053   -8.8012 C.3       7 UNK         0.0273 
     46 CB         26.2921    3.5809   -8.9529 C.3       7 UNK        -0.1935 
     47 C          28.4134    2.4313   -9.7390 C.2       7 UNK         0.5018 
     48 O          28.5808    2.7121  -10.9271 O.2       7 UNK        -0.5186 
     49 N          28.7202    1.2397   -9.2139 N.am      8 UNK        -0.4240 
     50 CA         29.3877    0.1446   -9.9165 C.3       8 UNK         0.0235 
     51 CB         29.3696   -1.1035   -9.0186 C.3       8 UNK        -0.2000 
     52 C          30.8330    0.5092  -10.2931 C.2       8 UNK         0.4941 
     53 O          31.5037    1.2126   -9.5345 O.2       8 UNK        -0.5273 
     54 N          31.3091   -0.0220  -11.4288 N.am      9 UNK        -0.4262 
     55 CA         32.6603    0.2068  -11.9627 C.3       9 UNK         0.0264 
     56 CB         32.7999   -0.4958  -13.3227 C.3       9 UNK        -0.1955 
     57 C          33.7932   -0.2264  -11.0137 C.2       9 UNK         0.5031 
     58 O          34.8594    0.3909  -11.0192 O.2       9 UNK        -0.5390 
     59 N          33.5219   -1.2411  -10.1808 N.am      10 UNK        -0.4204 
     60 CA         34.3942   -1.7174   -9.1051 C.3       10 UNK         0.0237 
     61 CB         33.7809   -2.9871   -8.4913 C.3       10 UNK        -0.1985 
     62 C          34.6766   -0.6697   -8.0098 C.2       10 UNK         0.4970 
     63 O          35.6906   -0.7955   -7.3221 O.2       10 UNK        -0.4914 
     64 N          33.8021    0.3361   -7.8663 N.am      11 UNK        -0.4285 
     65 CA         33.9795    1.4669   -6.9434 C.3       11 UNK         0.1007 
     66 C          34.8791    2.6028   -7.5131 C.2       11 UNK         0.5703 
     67 N          35.3396    2.5391   -8.7587 N.am      11 UNK        -0.7361 
     68 O          35.1802    3.5591   -6.8025 O.2       11 UNK        -0.4986 
     69 C69        32.6223    2.0239   -6.4259 C.3       12 UNK        -0.0947 
     70 S70        31.4170    0.7662   -5.8756 S.3       12 UNK        -0.2240 
     71 C71        32.3634   -0.2017   -4.6566 C.3       12 UNK         0.0194 
     72 H72        24.3471   -0.3869   -8.9867 H         1 UNK         0.0906 
     73 H73        24.6968    0.3827   -7.4361 H         1 UNK         0.0906 
     74 H74        26.0149   -0.2212   -8.4483 H         1 UNK         0.0906 
     75 H75        26.7569   -1.5575   -6.6130 H         1 UNK         0.3140 
     76 H76        25.7339   -4.2253   -6.6493 H         1 UNK         0.1085 
     77 H77        27.8047   -2.9190   -4.8169 H         1 UNK         0.0836 
     78 H78        27.4720   -4.6348   -4.8571 H         1 UNK         0.0836 
     79 H79        30.9372   -4.7403   -6.5195 H         1 UNK         0.0731 
     80 H80        29.8581   -5.5091   -5.3812 H         1 UNK         0.0731 
     81 H81        31.5450   -2.2776   -6.1899 H         1 UNK         0.1312 
     82 H82        31.4423   -0.8387   -2.1557 H         1 UNK         0.1406 
     83 H83        29.5596   -4.5622   -3.1538 H         1 UNK         0.1631 
     84 H84        30.6357   -2.3222   -0.3763 H         1 UNK         0.0717 
     85 H85        30.0905   -3.9333   -0.7573 H         1 UNK         0.0717 
     86 H86        27.7855   -0.0445   -0.3942 H         1 UNK         0.0934 
     87 H87        29.4091   -0.2733   -0.9624 H         1 UNK         0.0934 
     88 H88        28.2826   -0.9965   -3.2511 H         1 UNK         0.0739 
     89 H89        26.0640   -1.0423   -3.2565 H         1 UNK         0.3093 
     90 H90        23.5726    1.3916   -2.3174 H         1 UNK         0.0818 
     91 H91        24.4965   -0.1712   -4.7869 H         1 UNK         0.0819 
     92 H92        22.9613    0.6616   -4.5899 H         1 UNK         0.0819 
     93 H93        24.4587    1.5788   -4.6372 H         1 UNK         0.0819 
     94 H94        23.9581   -1.5609   -2.6710 H         1 UNK         0.3041 
     95 H95        22.4964   -2.3622    0.0731 H         1 UNK         0.0784 
     96 H96        20.1559   -1.6684   -0.1831 H         1 UNK         0.0793 
     97 H97        20.1247   -2.1953   -1.8567 H         1 UNK         0.0793 
     98 H98        20.2894   -3.3770   -0.5580 H         1 UNK         0.0793 
     99 H99        23.3928   -3.8980   -1.1926 H         1 UNK         0.3024 
    100 H100       24.0348   -5.1697   -2.7411 H         1 UNK         0.1171 
    101 H101       23.0375   -6.8772   -4.2157 H         1 UNK         0.0786 
    102 H102       21.8182   -6.2935   -3.0963 H         1 UNK         0.0786 
    103 H103       21.8056   -5.7394   -4.7644 H         1 UNK         0.0786 
    104 H104       24.1883   -5.1129   -5.4574 H         1 UNK         0.2977 
    105 H105       27.3776    0.8866   -4.8127 H         1 UNK         0.3127 
    106 H106       29.4296    2.8458   -5.0383 H         1 UNK         0.0770 
    107 H107       26.5515    3.7796   -4.4227 H         1 UNK         0.0814 
    108 H108       27.8681    4.8255   -4.9402 H         1 UNK         0.0814 
    109 H109       27.9404    4.0434   -3.3727 H         1 UNK         0.0814 
    110 H110       28.7816    4.1783   -7.0518 H         1 UNK         0.2983 
    111 H111       28.2319    4.4567   -9.1484 H         1 UNK         0.0947 
    112 H112       25.8053    2.6523   -8.6537 H         1 UNK         0.0806 
    113 H113       26.0131    3.7700   -9.9904 H         1 UNK         0.0806 
    114 H114       25.8728    4.3884   -8.3530 H         1 UNK         0.0806 
    115 H115       28.5008    1.0998   -8.2342 H         1 UNK         0.3000 
    116 H116       28.8243   -0.0641  -10.8284 H         1 UNK         0.0850 
    117 H117       29.8385   -1.9549   -9.5132 H         1 UNK         0.0810 
    118 H118       28.3503   -1.3998   -8.7705 H         1 UNK         0.0810 
    119 H119       29.9044   -0.9360   -8.0823 H         1 UNK         0.0810 
    120 H120       30.6963   -0.5978  -11.9890 H         1 UNK         0.3040 
    121 H121       32.7683    1.2820  -12.1208 H         1 UNK         0.0766 
    122 H122       32.0690   -0.1226  -14.0403 H         1 UNK         0.0812 
    123 H123       32.6675   -1.5751  -13.2368 H         1 UNK         0.0812 
    124 H124       33.7881   -0.3222  -13.7515 H         1 UNK         0.0812 
    125 H125       32.6173   -1.6814  -10.2584 H         1 UNK         0.3205 
    126 H126       35.3552   -1.9810   -9.5516 H         1 UNK         0.0754 
    127 H127       32.7817   -2.8021   -8.0969 H         1 UNK         0.0769 
    128 H128       34.3928   -3.3625   -7.6697 H         1 UNK         0.0769 
    129 H129       33.7069   -3.7872   -9.2281 H         1 UNK         0.0769 
    130 H130       32.9983    0.4079   -8.4821 H         1 UNK         0.2981 
    131 H131       34.5237    1.1045   -6.0705 H         1 UNK         0.0541 
    132 H132       35.1099    1.7596   -9.3622 H         1 UNK         0.3459 
    133 H133       35.9252    3.2829   -9.1032 H         1 UNK         0.3459 
    134 H134       32.7887    2.7132   -5.5964 H         1 UNK         0.0612 
    135 H135       32.1346    2.6066   -7.2095 H         1 UNK         0.0612 
    136 H136       33.3057   -0.5366   -5.0889 H         1 UNK         0.0624 
    137 H137       32.6099    0.4362   -3.8066 H         1 UNK         0.0624 
@<TRIPOS>BOND
     1    1    2 1    
     2    1   72 1    
     3    1   73 1    
     4    1   74 1    
     5    2    3 2    
     6    2    4 am   BACKBONE|DICT|INTERRES
     7    4    5 1    
     8    4   75 1    
     9    5    6 1    
    10    5   35 1    
    11    5   76 1    
    12    6    7 1    
    13    6   77 1    
    14    6   78 1    
    15    7    8 1    
    16    8    9 1    
    17    8   79 1    
    18    8   80 1    
    19    9   10 ar   
    20    9   14 ar   
    21   10   11 ar   
    22   10   81 1    
    23   11   12 ar   
    24   11   71 1    
    25   12   13 ar   
    26   12   82 1    
    27   13   14 ar   
    28   13   15 1    
    29   14   83 1    
    30   15   16 1    
    31   15   84 1    
    32   15   85 1    
    33   16   17 1    
    34   17   18 1    
    35   17   86 1    
    36   17   87 1    
    37   18   19 1    
    38   18   37 1    
    39   18   88 1    
    40   19   20 am   BACKBONE|DICT|INTERRES
    41   19   89 1    
    42   20   21 2    
    43   20   22 1    
    44   22   23 1    
    45   22   24 1    
    46   22   90 1    
    47   23   91 1    
    48   23   92 1    
    49   23   93 1    
    50   24   25 am   BACKBONE|DICT|INTERRES
    51   24   94 1    
    52   25   26 2    
    53   25   27 1    
    54   27   28 1    
    55   27   29 1    
    56   27   95 1    
    57   28   96 1    
    58   28   97 1    
    59   28   98 1    
    60   29   30 am   BACKBONE|DICT|INTERRES
    61   29   99 1    
    62   30   31 2    
    63   30   32 1    
    64   32   33 1    
    65   32   34 1    
    66   32  100 1    
    67   33  101 1    
    68   33  102 1    
    69   33  103 1    
    70   34   35 am   BACKBONE|DICT|INTERRES
    71   34  104 1    
    72   35   36 2    
    73   37   38 2    
    74   37   39 am   BACKBONE|DICT|INTERRES
    75   39   40 1    
    76   39  105 1    
    77   40   41 1    
    78   40   42 1    
    79   40  106 1    
    80   41  107 1    
    81   41  108 1    
    82   41  109 1    
    83   42   43 2    
    84   42   44 am   BACKBONE|DICT|INTERRES
    85   44   45 1    
    86   44  110 1    
    87   45   46 1    
    88   45   47 1    
    89   45  111 1    
    90   46  112 1    
    91   46  113 1    
    92   46  114 1    
    93   47   48 2    
    94   47   49 am   BACKBONE|DICT|INTERRES
    95   49   50 1    
    96   49  115 1    
    97   50   51 1    
    98   50   52 1    
    99   50  116 1    
   100   51  117 1    
   101   51  118 1    
   102   51  119 1    
   103   52   53 2    
   104   52   54 am   BACKBONE|DICT|INTERRES
   105   54   55 1    
   106   54  120 1    
   107   55   56 1    
   108   55   57 1    
   109   55  121 1    
   110   56  122 1    
   111   56  123 1    
   112   56  124 1    
   113   57   58 2    
   114   57   59 am   BACKBONE|DICT|INTERRES
   115   59   60 1    
   116   59  125 1    
   117   60   61 1    
   118   60   62 1    
   119   60  126 1    
   120   61  127 1    
   121   61  128 1    
   122   61  129 1    
   123   62   63 2    
   124   62   64 am   BACKBONE|DICT|INTERRES
   125   64   65 1    
   126   64  130 1    
   127   65   66 1    
   128   65   69 1    
   129   65  131 1    
   130   66   67 am   BACKBONE|DICT|INTERRES
   131   66   68 2    
   132   67  132 1    
   133   67  133 1    
   134   69   70 1    
   135   69  134 1    
   136   69  135 1    
   137   70   71 1    
   138   71  136 1    
   139   71  137 1    
@<TRIPOS>SUBSTRUCTURE
     1 UNK         1 GROUP             0       ****    0 ROOT    
