@<TRIPOS>MOLECULE
3R137
137   139    1
SMALL
USER_CHARGES


@<TRIPOS>ATOM
      1 CA         25.3459   -6.2649   -4.0566 C.3       0 UNK        -0.2020 
      2 C          25.6780   -5.1406   -3.0891 C.2       0 UNK         0.4855 
      3 O          25.5852   -3.9713   -3.4679 O.2       0 UNK        -0.5197 
      4 N          26.0467   -5.4869   -1.8458 N.am      1 UNK        -0.4892 
      5 CA         26.4818   -4.6272   -0.7270 C.3       1 UNK         0.0835 
      6 C6         27.7824   -3.8389   -1.0255 C.3       12 UNK        -0.0855 
      7 S7         29.2586   -4.9046   -1.1757 S.3       12 UNK        -0.2931 
      8 C8         29.7468   -4.6824   -2.9241 C.3       12 UNK         0.0378 
      9 C9         30.4344   -3.3563   -3.2747 C.ar      12 UNK        -0.0802 
     10 C10        31.2423   -3.3011   -4.4151 C.ar      12 UNK        -0.0944 
     11 C11        31.8493   -2.1049   -4.8124 C.ar      12 UNK        -0.0787 
     12 C12        31.6212   -0.9390   -4.0743 C.ar      12 UNK        -0.0862 
     13 C13        30.8246   -0.9724   -2.9261 C.ar      12 UNK        -0.0733 
     14 C14        30.2597   -2.1866   -2.5245 C.ar      12 UNK        -0.0832 
     15 C15        30.6119    0.2858   -2.0880 C.3       12 UNK         0.0240 
     16 S16        28.8607    0.5378   -1.6288 S.3       12 UNK        -0.2522 
     17 C17        28.3411    1.8996   -2.7255 C.3       12 UNK        -0.0967 
     18 CA         28.3531    1.5612   -4.2370 C.3       5 UNK         0.0660 
     19 N          27.6608    0.3039   -4.5401 N.am      5 UNK        -0.4015 
     20 C          27.6631   -0.2958   -5.7371 C.2       4 UNK         0.4946 
     21 O          28.2224    0.1644   -6.7307 O.2       4 UNK        -0.5353 
     22 CA         26.8387   -1.5808   -5.8835 C.3       4 UNK         0.0277 
     23 CB         27.6933   -2.7992   -5.5149 C.3       4 UNK        -0.1981 
     24 N          25.5815   -1.5961   -5.1233 N.am      4 UNK        -0.4209 
     25 C          24.6050   -0.6801   -5.2370 C.2       3 UNK         0.4942 
     26 O          24.7198    0.3640   -5.8812 O.2       3 UNK        -0.5208 
     27 CA         23.2698   -0.9717   -4.5386 C.3       3 UNK         0.0250 
     28 CB         22.3782   -1.8327   -5.4476 C.3       3 UNK        -0.1990 
     29 N          23.4261   -1.6352   -3.2444 N.am      3 UNK        -0.4232 
     30 C          23.6976   -0.9977   -2.0967 C.2       2 UNK         0.4993 
     31 O          23.8870    0.2155   -2.0095 O.2       2 UNK        -0.5286 
     32 CA         23.7899   -1.8699   -0.8407 C.3       2 UNK         0.0209 
     33 CB         22.4071   -2.3893   -0.4038 C.3       2 UNK        -0.1931 
     34 N          24.7073   -2.9738   -1.0959 N.am      2 UNK        -0.4546 
     35 C          25.4022   -3.6603   -0.1893 C.2       1 UNK         0.5154 
     36 O          25.2487   -3.5339    1.0265 O.2       1 UNK        -0.5181 
     37 C          27.8283    2.7682   -5.0500 C.2       5 UNK         0.5014 
     38 O          28.5575    3.7516   -5.1836 O.2       5 UNK        -0.5248 
     39 N          26.5957    2.6841   -5.5717 N.am      6 UNK        -0.4434 
     40 CA         26.0014    3.6772   -6.4649 C.3       6 UNK         0.0363 
     41 CB         24.5821    4.0137   -5.9778 C.3       6 UNK        -0.1936 
     42 C          25.9645    3.1638   -7.9120 C.2       6 UNK         0.5081 
     43 O          26.2856    3.9216   -8.8273 O.2       6 UNK        -0.5248 
     44 N          25.5531    1.9016   -8.0995 N.am      7 UNK        -0.4718 
     45 CA         25.3240    1.2889   -9.4100 C.3       7 UNK         0.0273 
     46 CB         24.4820    0.0148   -9.2308 C.3       7 UNK        -0.1935 
     47 C          26.6098    0.9759  -10.1921 C.2       7 UNK         0.5018 
     48 O          26.6136    1.1235  -11.4152 O.2       7 UNK        -0.5186 
     49 N          27.6580    0.5337   -9.4875 N.am      8 UNK        -0.4240 
     50 CA         28.9455    0.1315  -10.0596 C.3       8 UNK         0.0235 
     51 CB         29.1920   -1.3460   -9.7217 C.3       8 UNK        -0.2000 
     52 C          30.0988    1.0205   -9.5649 C.2       8 UNK         0.4941 
     53 O          31.0778    1.1840  -10.2957 O.2       8 UNK        -0.5273 
     54 N          29.9568    1.5997   -8.3631 N.am      9 UNK        -0.4262 
     55 CA         30.8282    2.5873   -7.7201 C.3       9 UNK         0.0264 
     56 CB         30.7824    3.9348   -8.4730 C.3       9 UNK        -0.1955 
     57 C          32.2515    2.0586   -7.4882 C.2       9 UNK         0.5031 
     58 O          32.5087    1.4639   -6.4424 O.2       9 UNK        -0.5390 
     59 N          33.1473    2.2824   -8.4575 N.am      10 UNK        -0.4204 
     60 CA         34.5086    1.7446   -8.4671 C.3       10 UNK         0.0237 
     61 CB         35.3577    2.5413   -9.4714 C.3       10 UNK        -0.1985 
     62 C          34.5559    0.2406   -8.7945 C.2       10 UNK         0.4970 
     63 O          35.5355   -0.4127   -8.4342 O.2       10 UNK        -0.4914 
     64 N          33.5188   -0.2707   -9.4751 N.am      11 UNK        -0.4285 
     65 CA         33.3658   -1.6696   -9.9114 C.3       11 UNK         0.1007 
     66 C          34.3902   -2.1295  -10.9949 C.2       11 UNK         0.5703 
     67 N          35.0612   -1.2236  -11.6970 N.am      11 UNK        -0.7361 
     68 O          34.5587   -3.3236  -11.2324 O.2       11 UNK        -0.4986 
     69 C69        33.2458   -2.6756   -8.7287 C.3       12 UNK        -0.0947 
     70 S70        31.8802   -2.2912   -7.5785 S.3       12 UNK        -0.2240 
     71 C71        32.7836   -2.0923   -6.0145 C.3       12 UNK         0.0194 
     72 H72        26.0010   -6.2130   -4.9257 H         1 UNK         0.0906 
     73 H73        24.3162   -6.1708   -4.4002 H         1 UNK         0.0906 
     74 H74        25.4645   -7.2472   -3.5999 H         1 UNK         0.0906 
     75 H75        26.0589   -6.4726   -1.6216 H         1 UNK         0.3140 
     76 H76        26.6947   -5.3095    0.0981 H         1 UNK         0.1085 
     77 H77        27.6581   -3.2349   -1.9256 H         1 UNK         0.0836 
     78 H78        27.9949   -3.1338   -0.2185 H         1 UNK         0.0836 
     79 H79        30.4194   -5.5040   -3.1754 H         1 UNK         0.0731 
     80 H80        28.8675   -4.8101   -3.5561 H         1 UNK         0.0731 
     81 H81        31.4032   -4.1951   -5.0025 H         1 UNK         0.1312 
     82 H82        32.0846   -0.0115   -4.3807 H         1 UNK         0.1406 
     83 H83        29.6751   -2.1958   -1.6200 H         1 UNK         0.1631 
     84 H84        30.9919    1.1695   -2.6027 H         1 UNK         0.0717 
     85 H85        31.1978    0.1901   -1.1730 H         1 UNK         0.0717 
     86 H86        27.3374    2.1963   -2.4136 H         1 UNK         0.0934 
     87 H87        28.9823    2.7604   -2.5237 H         1 UNK         0.0934 
     88 H88        29.3928    1.4194   -4.5399 H         1 UNK         0.0739 
     89 H89        27.1700   -0.1351   -3.7752 H         1 UNK         0.3093 
     90 H90        26.5735   -1.6684   -6.9387 H         1 UNK         0.0818 
     91 H91        28.6441   -2.7934   -6.0510 H         1 UNK         0.0819 
     92 H92        27.9177   -2.8086   -4.4492 H         1 UNK         0.0819 
     93 H93        27.1865   -3.7320   -5.7614 H         1 UNK         0.0819 
     94 H94        25.4213   -2.4212   -4.5502 H         1 UNK         0.3041 
     95 H95        22.7652   -0.0151   -4.3840 H         1 UNK         0.0784 
     96 H96        22.2316   -1.3535   -6.4169 H         1 UNK         0.0793 
     97 H97        22.8150   -2.8151   -5.6324 H         1 UNK         0.0793 
     98 H98        21.3911   -1.9808   -5.0091 H         1 UNK         0.0793 
     99 H99        23.2891   -2.6357   -3.2274 H         1 UNK         0.3024 
    100 H100       24.2013   -1.2503   -0.0402 H         1 UNK         0.1171 
    101 H101       21.9720   -3.0618   -1.1439 H         1 UNK         0.0786 
    102 H102       22.4678   -2.9295    0.5410 H         1 UNK         0.0786 
    103 H103       21.7086   -1.5640   -0.2589 H         1 UNK         0.0786 
    104 H104       24.9508   -3.1568   -2.0694 H         1 UNK         0.2977 
    105 H105       26.0646    1.8299   -5.4378 H         1 UNK         0.3127 
    106 H106       26.5855    4.6000   -6.4563 H         1 UNK         0.0770 
    107 H107       24.1090    4.7476   -6.6317 H         1 UNK         0.0814 
    108 H108       23.9392    3.1326   -5.9558 H         1 UNK         0.0814 
    109 H109       24.6003    4.4383   -4.9740 H         1 UNK         0.0814 
    110 H110       25.2763    1.3488   -7.2902 H         1 UNK         0.2983 
    111 H111       24.7435    1.9935  -10.0100 H         1 UNK         0.0947 
    112 H112       24.9983   -0.7291   -8.6235 H         1 UNK         0.0806 
    113 H113       24.2606   -0.4465  -10.1943 H         1 UNK         0.0806 
    114 H114       23.5285    0.2339   -8.7497 H         1 UNK         0.0806 
    115 H115       27.5775    0.4589   -8.4771 H         1 UNK         0.3000 
    116 H116       28.9238    0.2259  -11.1473 H         1 UNK         0.0850 
    117 H117       30.1354   -1.6930  -10.1404 H         1 UNK         0.0810 
    118 H118       28.4061   -1.9804  -10.1314 H         1 UNK         0.0810 
    119 H119       29.2253   -1.5129   -8.6448 H         1 UNK         0.0810 
    120 H120       29.1999    1.2537   -7.7764 H         1 UNK         0.3040 
    121 H121       30.4113    2.7576   -6.7282 H         1 UNK         0.0766 
    122 H122       31.4399    4.6682   -8.0043 H         1 UNK         0.0812 
    123 H123       29.7748    4.3512   -8.4551 H         1 UNK         0.0812 
    124 H124       31.0793    3.8434   -9.5180 H         1 UNK         0.0812 
    125 H125       32.8275    2.7434   -9.2980 H         1 UNK         0.3205 
    126 H126       34.9402    1.8776   -7.4725 H         1 UNK         0.0754 
    127 H127       36.3865    2.1785   -9.4871 H         1 UNK         0.0769 
    128 H128       35.3935    3.5988   -9.2086 H         1 UNK         0.0769 
    129 H129       34.9674    2.4603  -10.4867 H         1 UNK         0.0769 
    130 H130       32.7554    0.3461   -9.7369 H         1 UNK         0.2981 
    131 H131       32.4135   -1.6896  -10.4391 H         1 UNK         0.0541 
    132 H132       35.7122   -1.5297  -12.4028 H         1 UNK         0.3459 
    133 H133       34.9230   -0.2407  -11.5280 H         1 UNK         0.3459 
    134 H134       34.1889   -2.7349   -8.1840 H         1 UNK         0.0612 
    135 H135       33.0571   -3.6820   -9.1056 H         1 UNK         0.0612 
    136 H136       33.3612   -1.1675   -6.0532 H         1 UNK         0.0624 
    137 H137       33.5040   -2.9042   -5.9053 H         1 UNK         0.0624 
@<TRIPOS>BOND
     1    1    2 1    
     2    1   72 1    
     3    1   73 1    
     4    1   74 1    
     5    2    3 2    
     6    2    4 am   BACKBONE|DICT|INTERRES
     7    4    5 1    
     8    4   75 1    
     9    5    6 1    
    10    5   35 1    
    11    5   76 1    
    12    6    7 1    
    13    6   77 1    
    14    6   78 1    
    15    7    8 1    
    16    8    9 1    
    17    8   79 1    
    18    8   80 1    
    19    9   10 ar   
    20    9   14 ar   
    21   10   11 ar   
    22   10   81 1    
    23   11   12 ar   
    24   11   71 1    
    25   12   13 ar   
    26   12   82 1    
    27   13   14 ar   
    28   13   15 1    
    29   14   83 1    
    30   15   16 1    
    31   15   84 1    
    32   15   85 1    
    33   16   17 1    
    34   17   18 1    
    35   17   86 1    
    36   17   87 1    
    37   18   19 1    
    38   18   37 1    
    39   18   88 1    
    40   19   20 am   BACKBONE|DICT|INTERRES
    41   19   89 1    
    42   20   21 2    
    43   20   22 1    
    44   22   23 1    
    45   22   24 1    
    46   22   90 1    
    47   23   91 1    
    48   23   92 1    
    49   23   93 1    
    50   24   25 am   BACKBONE|DICT|INTERRES
    51   24   94 1    
    52   25   26 2    
    53   25   27 1    
    54   27   28 1    
    55   27   29 1    
    56   27   95 1    
    57   28   96 1    
    58   28   97 1    
    59   28   98 1    
    60   29   30 am   BACKBONE|DICT|INTERRES
    61   29   99 1    
    62   30   31 2    
    63   30   32 1    
    64   32   33 1    
    65   32   34 1    
    66   32  100 1    
    67   33  101 1    
    68   33  102 1    
    69   33  103 1    
    70   34   35 am   BACKBONE|DICT|INTERRES
    71   34  104 1    
    72   35   36 2    
    73   37   38 2    
    74   37   39 am   BACKBONE|DICT|INTERRES
    75   39   40 1    
    76   39  105 1    
    77   40   41 1    
    78   40   42 1    
    79   40  106 1    
    80   41  107 1    
    81   41  108 1    
    82   41  109 1    
    83   42   43 2    
    84   42   44 am   BACKBONE|DICT|INTERRES
    85   44   45 1    
    86   44  110 1    
    87   45   46 1    
    88   45   47 1    
    89   45  111 1    
    90   46  112 1    
    91   46  113 1    
    92   46  114 1    
    93   47   48 2    
    94   47   49 am   BACKBONE|DICT|INTERRES
    95   49   50 1    
    96   49  115 1    
    97   50   51 1    
    98   50   52 1    
    99   50  116 1    
   100   51  117 1    
   101   51  118 1    
   102   51  119 1    
   103   52   53 2    
   104   52   54 am   BACKBONE|DICT|INTERRES
   105   54   55 1    
   106   54  120 1    
   107   55   56 1    
   108   55   57 1    
   109   55  121 1    
   110   56  122 1    
   111   56  123 1    
   112   56  124 1    
   113   57   58 2    
   114   57   59 am   BACKBONE|DICT|INTERRES
   115   59   60 1    
   116   59  125 1    
   117   60   61 1    
   118   60   62 1    
   119   60  126 1    
   120   61  127 1    
   121   61  128 1    
   122   61  129 1    
   123   62   63 2    
   124   62   64 am   BACKBONE|DICT|INTERRES
   125   64   65 1    
   126   64  130 1    
   127   65   66 1    
   128   65   69 1    
   129   65  131 1    
   130   66   67 am   BACKBONE|DICT|INTERRES
   131   66   68 2    
   132   67  132 1    
   133   67  133 1    
   134   69   70 1    
   135   69  134 1    
   136   69  135 1    
   137   70   71 1    
   138   71  136 1    
   139   71  137 1    
@<TRIPOS>SUBSTRUCTURE
     1 UNK         1 GROUP             0       ****    0 ROOT    
