@<TRIPOS>MOLECULE
3R137
137   139    1
SMALL
USER_CHARGES


@<TRIPOS>ATOM
      1 CA         25.2720   -6.8112   -4.2500 C.3       0 UNK        -0.2020 
      2 C          25.5226   -5.8383   -3.1081 C.2       0 UNK         0.4855 
      3 O          24.5994   -5.1438   -2.6808 O.2       0 UNK        -0.5197 
      4 N          26.7635   -5.7780   -2.6071 N.am      1 UNK        -0.4892 
      5 CA         27.1880   -4.8290   -1.5738 C.3       1 UNK         0.0835 
      6 C6         28.5560   -5.2245   -0.9682 C.3       12 UNK        -0.0855 
      7 S7         29.0127   -4.2040    0.4800 S.3       12 UNK        -0.2931 
      8 C8         30.7218   -3.7012    0.0962 C.3       12 UNK         0.0378 
      9 C9         30.8363   -2.8347   -1.1534 C.ar      12 UNK        -0.0802 
     10 C10        31.2817   -3.3998   -2.3513 C.ar      12 UNK        -0.0944 
     11 C11        31.4626   -2.6096   -3.4873 C.ar      12 UNK        -0.0787 
     12 C12        31.2048   -1.2369   -3.4209 C.ar      12 UNK        -0.0862 
     13 C13        30.7634   -0.6527   -2.2285 C.ar      12 UNK        -0.0733 
     14 C14        30.5672   -1.4620   -1.1012 C.ar      12 UNK        -0.0832 
     15 C15        30.5775    0.8587   -2.1293 C.3       12 UNK         0.0240 
     16 S16        29.0809    1.4593   -2.9780 S.3       12 UNK        -0.2522 
     17 C17        29.7247    1.9609   -4.6112 C.3       12 UNK        -0.0967 
     18 CA         28.7701    1.6784   -5.7986 C.3       5 UNK         0.0660 
     19 N          28.2859    0.2972   -5.8462 N.am      5 UNK        -0.4015 
     20 C          27.7696   -0.2703   -6.9452 C.2       4 UNK         0.4946 
     21 O          27.6389    0.3192   -8.0194 O.2       4 UNK        -0.5353 
     22 CA         27.2920   -1.7242   -6.8114 C.3       4 UNK         0.0277 
     23 CB         28.4704   -2.6745   -6.5370 C.3       4 UNK        -0.1981 
     24 N          26.2814   -1.8734   -5.7634 N.am      4 UNK        -0.4209 
     25 C          25.0563   -1.3234   -5.8083 C.2       3 UNK         0.4942 
     26 O          24.6298   -0.6814   -6.7660 O.2       3 UNK        -0.5208 
     27 CA         24.1560   -1.4818   -4.5687 C.3       3 UNK         0.0250 
     28 CB         23.2413   -2.7061   -4.7263 C.3       3 UNK        -0.1990 
     29 N          24.9024   -1.5847   -3.3132 N.am      3 UNK        -0.4232 
     30 C          25.7625   -0.6613   -2.8570 C.2       2 UNK         0.4993 
     31 O          25.9408    0.4247   -3.4058 O.2       2 UNK        -0.5286 
     32 CA         26.6059   -1.0169   -1.6202 C.3       2 UNK         0.0209 
     33 CB         26.1001   -0.2600   -0.3827 C.3       2 UNK        -0.1931 
     34 N          26.6823   -2.4485   -1.3176 N.am      2 UNK        -0.4546 
     35 C          27.1802   -3.3901   -2.1318 C.2       1 UNK         0.5154 
     36 O          27.5900   -3.1665   -3.2751 O.2       1 UNK        -0.5181 
     37 C          27.6335    2.7144   -5.9260 C.2       5 UNK         0.5014 
     38 O          27.8440    3.7382   -6.5775 O.2       5 UNK        -0.5248 
     39 N          26.4406    2.4250   -5.3809 N.am      6 UNK        -0.4434 
     40 CA         25.2387    3.2548   -5.5408 C.3       6 UNK         0.0363 
     41 CB         24.1146    2.7320   -4.6343 C.3       6 UNK        -0.1936 
     42 C          24.7482    3.3525   -6.9978 C.2       6 UNK         0.5081 
     43 O          24.2449    4.4037   -7.3939 O.2       6 UNK        -0.5248 
     44 N          24.9334    2.2793   -7.7794 N.am      7 UNK        -0.4718 
     45 CA         24.6595    2.2358   -9.2198 C.3       7 UNK         0.0273 
     46 CB         24.3775    0.7800   -9.6291 C.3       7 UNK        -0.1935 
     47 C          25.7975    2.8260  -10.0766 C.2       7 UNK         0.5018 
     48 O          25.6711    2.8329  -11.3019 O.2       7 UNK        -0.5186 
     49 N          26.8853    3.2851   -9.4368 N.am      8 UNK        -0.4240 
     50 CA         28.1280    3.7909  -10.0320 C.3       8 UNK         0.0235 
     51 CB         27.8781    5.0743  -10.8533 C.3       8 UNK        -0.2000 
     52 C          28.9103    2.7153  -10.8123 C.2       8 UNK         0.4941 
     53 O          29.6477    3.0489  -11.7413 O.2       8 UNK        -0.5273 
     54 N          28.7692    1.4495  -10.3996 N.am      9 UNK        -0.4262 
     55 CA         29.4855    0.2897  -10.9260 C.3       9 UNK         0.0264 
     56 CB         28.4570   -0.7357  -11.4397 C.3       9 UNK        -0.1955 
     57 C          30.3807   -0.2748   -9.8114 C.2       9 UNK         0.5031 
     58 O          30.3356   -1.4729   -9.5256 O.2       9 UNK        -0.5390 
     59 N          31.1428    0.6190   -9.1640 N.am      10 UNK        -0.4204 
     60 CA         32.0007    0.3237   -8.0176 C.3       10 UNK         0.0237 
     61 CB         32.5745    1.6355   -7.4578 C.3       10 UNK        -0.1985 
     62 C          33.1300   -0.6592   -8.3677 C.2       10 UNK         0.4970 
     63 O          33.7397   -0.5495   -9.4342 O.2       10 UNK        -0.4914 
     64 N          33.3794   -1.5884   -7.4442 N.am      11 UNK        -0.4285 
     65 CA         34.4277   -2.6104   -7.5071 C.3       11 UNK         0.1007 
     66 C          35.8588   -2.0354   -7.3074 C.2       11 UNK         0.5703 
     67 N          36.8806   -2.7619   -7.7403 N.am      11 UNK        -0.7361 
     68 O          36.0561   -0.9561   -6.7507 O.2       11 UNK        -0.4986 
     69 C69        34.1067   -3.7779   -6.5328 C.3       12 UNK        -0.0947 
     70 S70        33.7901   -3.2424   -4.8137 S.3       12 UNK        -0.2240 
     71 C71        31.9699   -3.2396   -4.7733 C.3       12 UNK         0.0194 
     72 H72        24.9328   -6.2712   -5.1336 H         1 UNK         0.0906 
     73 H73        26.1699   -7.3682   -4.5165 H         1 UNK         0.0906 
     74 H74        24.4992   -7.5267   -3.9702 H         1 UNK         0.0906 
     75 H75        27.4939   -6.3434   -3.0158 H         1 UNK         0.3140 
     76 H76        26.4468   -4.8849   -0.7728 H         1 UNK         0.1085 
     77 H77        29.3333   -5.1874   -1.7305 H         1 UNK         0.0836 
     78 H78        28.5219   -6.2625   -0.6332 H         1 UNK         0.0836 
     79 H79        31.3403   -4.5951   -0.0006 H         1 UNK         0.0731 
     80 H80        31.1226   -3.1532    0.9502 H         1 UNK         0.0731 
     81 H81        31.5110   -4.4556   -2.3971 H         1 UNK         0.1312 
     82 H82        31.3766   -0.6223   -4.2916 H         1 UNK         0.1406 
     83 H83        30.2396   -1.0205   -0.1696 H         1 UNK         0.1631 
     84 H84        31.4602    1.3664   -2.5208 H         1 UNK         0.0717 
     85 H85        30.5090    1.1563   -1.0819 H         1 UNK         0.0717 
     86 H86        29.9829    3.0211   -4.5694 H         1 UNK         0.0934 
     87 H87        30.6693    1.4502   -4.7939 H         1 UNK         0.0934 
     88 H88        29.3729    1.8141   -6.6997 H         1 UNK         0.0739 
     89 H89        28.3070   -0.2184   -4.9779 H         1 UNK         0.3093 
     90 H90        26.8384   -2.0111   -7.7626 H         1 UNK         0.0818 
     91 H91        29.2382   -2.5778   -7.3055 H         1 UNK         0.0819 
     92 H92        28.9433   -2.4747   -5.5747 H         1 UNK         0.0819 
     93 H93        28.1454   -3.7149   -6.5346 H         1 UNK         0.0819 
     94 H94        26.5665   -2.3664   -4.9229 H         1 UNK         0.3041 
     95 H95        23.5262   -0.5933   -4.5014 H         1 UNK         0.0784 
     96 H96        22.6219   -2.6157   -5.6198 H         1 UNK         0.0793 
     97 H97        23.8153   -3.6284   -4.8215 H         1 UNK         0.0793 
     98 H98        22.5686   -2.8150   -3.8754 H         1 UNK         0.0793 
     99 H99        24.8266   -2.4580   -2.8097 H         1 UNK         0.3024 
    100 H100       27.6245   -0.6892   -1.8298 H         1 UNK         0.1171 
    101 H101       26.7542   -0.4189    0.4749 H         1 UNK         0.0786 
    102 H102       26.0714    0.8147   -0.5694 H         1 UNK         0.0786 
    103 H103       25.0926   -0.5704   -0.1030 H         1 UNK         0.0786 
    104 H104       26.3751   -2.7249   -0.3959 H         1 UNK         0.2977 
    105 H105       26.3471    1.5970   -4.7932 H         1 UNK         0.3127 
    106 H106       25.4932    4.2652   -5.2138 H         1 UNK         0.0770 
    107 H107       23.8215    1.7183   -4.9066 H         1 UNK         0.0814 
    108 H108       23.2264    3.3605   -4.7105 H         1 UNK         0.0814 
    109 H109       24.4183    2.7254   -3.5874 H         1 UNK         0.0814 
    110 H110       25.3206    1.4351   -7.3731 H         1 UNK         0.2983 
    111 H111       23.7641    2.8254   -9.4283 H         1 UNK         0.0947 
    112 H112       24.1305    0.7067  -10.6889 H         1 UNK         0.0806 
    113 H113       23.5341    0.3693   -9.0739 H         1 UNK         0.0806 
    114 H114       25.2409    0.1379   -9.4494 H         1 UNK         0.0806 
    115 H115       26.8866    3.2408   -8.4241 H         1 UNK         0.3000 
    116 H116       28.7665    4.0655   -9.1911 H         1 UNK         0.0850 
    117 H117       28.8199    5.5360  -11.1523 H         1 UNK         0.0810 
    118 H118       27.3260    5.8144  -10.2742 H         1 UNK         0.0810 
    119 H119       27.3150    4.8712  -11.7645 H         1 UNK         0.0810 
    120 H120       28.1895    1.2534   -9.5847 H         1 UNK         0.3040 
    121 H121       30.1366    0.5718  -11.7558 H         1 UNK         0.0766 
    122 H122       27.8295   -0.3077  -12.2216 H         1 UNK         0.0812 
    123 H123       27.8025   -1.0825  -10.6385 H         1 UNK         0.0812 
    124 H124       28.9525   -1.6107  -11.8621 H         1 UNK         0.0812 
    125 H125       31.1415    1.5716   -9.4971 H         1 UNK         0.3205 
    126 H126       31.3653   -0.1275   -7.2518 H         1 UNK         0.0754 
    127 H127       33.1839    1.4484   -6.5724 H         1 UNK         0.0769 
    128 H128       31.7849    2.3279   -7.1658 H         1 UNK         0.0769 
    129 H129       33.2095    2.1399   -8.1876 H         1 UNK         0.0769 
    130 H130       32.8764   -1.5588   -6.5719 H         1 UNK         0.2981 
    131 H131       34.4036   -3.0199   -8.5191 H         1 UNK         0.0541 
    132 H132       36.7355   -3.6513   -8.1924 H         1 UNK         0.3459 
    133 H133       37.8176   -2.4122   -7.6135 H         1 UNK         0.3459 
    134 H134       34.9183   -4.5074   -6.5218 H         1 UNK         0.0612 
    135 H135       33.2348   -4.3243   -6.8959 H         1 UNK         0.0612 
    136 H136       31.5727   -2.6994   -5.6329 H         1 UNK         0.0624 
    137 H137       31.6053   -4.2644   -4.8606 H         1 UNK         0.0624 
@<TRIPOS>BOND
     1    1    2 1    
     2    1   72 1    
     3    1   73 1    
     4    1   74 1    
     5    2    3 2    
     6    2    4 am   BACKBONE|DICT|INTERRES
     7    4    5 1    
     8    4   75 1    
     9    5    6 1    
    10    5   35 1    
    11    5   76 1    
    12    6    7 1    
    13    6   77 1    
    14    6   78 1    
    15    7    8 1    
    16    8    9 1    
    17    8   79 1    
    18    8   80 1    
    19    9   10 ar   
    20    9   14 ar   
    21   10   11 ar   
    22   10   81 1    
    23   11   12 ar   
    24   11   71 1    
    25   12   13 ar   
    26   12   82 1    
    27   13   14 ar   
    28   13   15 1    
    29   14   83 1    
    30   15   16 1    
    31   15   84 1    
    32   15   85 1    
    33   16   17 1    
    34   17   18 1    
    35   17   86 1    
    36   17   87 1    
    37   18   19 1    
    38   18   37 1    
    39   18   88 1    
    40   19   20 am   BACKBONE|DICT|INTERRES
    41   19   89 1    
    42   20   21 2    
    43   20   22 1    
    44   22   23 1    
    45   22   24 1    
    46   22   90 1    
    47   23   91 1    
    48   23   92 1    
    49   23   93 1    
    50   24   25 am   BACKBONE|DICT|INTERRES
    51   24   94 1    
    52   25   26 2    
    53   25   27 1    
    54   27   28 1    
    55   27   29 1    
    56   27   95 1    
    57   28   96 1    
    58   28   97 1    
    59   28   98 1    
    60   29   30 am   BACKBONE|DICT|INTERRES
    61   29   99 1    
    62   30   31 2    
    63   30   32 1    
    64   32   33 1    
    65   32   34 1    
    66   32  100 1    
    67   33  101 1    
    68   33  102 1    
    69   33  103 1    
    70   34   35 am   BACKBONE|DICT|INTERRES
    71   34  104 1    
    72   35   36 2    
    73   37   38 2    
    74   37   39 am   BACKBONE|DICT|INTERRES
    75   39   40 1    
    76   39  105 1    
    77   40   41 1    
    78   40   42 1    
    79   40  106 1    
    80   41  107 1    
    81   41  108 1    
    82   41  109 1    
    83   42   43 2    
    84   42   44 am   BACKBONE|DICT|INTERRES
    85   44   45 1    
    86   44  110 1    
    87   45   46 1    
    88   45   47 1    
    89   45  111 1    
    90   46  112 1    
    91   46  113 1    
    92   46  114 1    
    93   47   48 2    
    94   47   49 am   BACKBONE|DICT|INTERRES
    95   49   50 1    
    96   49  115 1    
    97   50   51 1    
    98   50   52 1    
    99   50  116 1    
   100   51  117 1    
   101   51  118 1    
   102   51  119 1    
   103   52   53 2    
   104   52   54 am   BACKBONE|DICT|INTERRES
   105   54   55 1    
   106   54  120 1    
   107   55   56 1    
   108   55   57 1    
   109   55  121 1    
   110   56  122 1    
   111   56  123 1    
   112   56  124 1    
   113   57   58 2    
   114   57   59 am   BACKBONE|DICT|INTERRES
   115   59   60 1    
   116   59  125 1    
   117   60   61 1    
   118   60   62 1    
   119   60  126 1    
   120   61  127 1    
   121   61  128 1    
   122   61  129 1    
   123   62   63 2    
   124   62   64 am   BACKBONE|DICT|INTERRES
   125   64   65 1    
   126   64  130 1    
   127   65   66 1    
   128   65   69 1    
   129   65  131 1    
   130   66   67 am   BACKBONE|DICT|INTERRES
   131   66   68 2    
   132   67  132 1    
   133   67  133 1    
   134   69   70 1    
   135   69  134 1    
   136   69  135 1    
   137   70   71 1    
   138   71  136 1    
   139   71  137 1    
@<TRIPOS>SUBSTRUCTURE
     1 UNK         1 GROUP             0       ****    0 ROOT    
