@<TRIPOS>MOLECULE
3R137
137   139    1
SMALL
USER_CHARGES


@<TRIPOS>ATOM
      1 CA         24.8874   -5.2528   -3.7338 C.3       0 UNK        -0.2020 
      2 C          25.2756   -4.3107   -2.6046 C.2       0 UNK         0.4855 
      3 O          24.7794   -3.1833   -2.5509 O.2       0 UNK        -0.5197 
      4 N          26.1570   -4.7777   -1.7075 N.am      1 UNK        -0.4892 
      5 CA         26.6174   -4.1075   -0.4819 C.3       1 UNK         0.0835 
      6 C6         27.5731   -4.9875    0.3771 C.3       12 UNK        -0.0855 
      7 S7         28.6173   -6.1845   -0.5357 S.3       12 UNK        -0.2931 
      8 C8         30.2204   -5.3235   -0.7239 C.3       12 UNK         0.0378 
      9 C9         30.4008   -4.5935   -2.0562 C.ar      12 UNK        -0.0802 
     10 C10        31.2355   -3.4707   -2.1128 C.ar      12 UNK        -0.0944 
     11 C11        31.4268   -2.7816   -3.3154 C.ar      12 UNK        -0.0787 
     12 C12        30.7953   -3.2355   -4.4744 C.ar      12 UNK        -0.0862 
     13 C13        29.9622   -4.3545   -4.4377 C.ar      12 UNK        -0.0733 
     14 C14        29.7779   -5.0355   -3.2318 C.ar      12 UNK        -0.0832 
     15 C15        29.2495   -4.8197   -5.6974 C.3       12 UNK         0.0240 
     16 S16        27.6329   -4.0041   -5.8771 S.3       12 UNK        -0.2522 
     17 C17        28.1285   -2.3281   -6.3946 C.3       12 UNK        -0.0967 
     18 CA         26.9666   -1.5294   -7.0269 C.3       5 UNK         0.0660 
     19 N          25.8196   -1.4117   -6.1199 N.am      5 UNK        -0.4015 
     20 C          24.5935   -1.0016   -6.4710 C.2       4 UNK         0.4946 
     21 O          24.2923   -0.6394   -7.6085 O.2       4 UNK        -0.5353 
     22 CA         23.5230   -0.9874   -5.3671 C.3       4 UNK         0.0277 
     23 CB         22.7863   -2.3336   -5.3044 C.3       4 UNK        -0.1981 
     24 N          24.0868   -0.6653   -4.0521 N.am      4 UNK        -0.4209 
     25 C          24.3454    0.5914   -3.6611 C.2       3 UNK         0.4942 
     26 O          24.0835    1.5868   -4.3376 O.2       3 UNK        -0.5208 
     27 CA         25.0296    0.7792   -2.2975 C.3       3 UNK         0.0250 
     28 CB         24.0154    0.6149   -1.1541 C.3       3 UNK        -0.1990 
     29 N          26.1709   -0.1080   -2.0634 N.am      3 UNK        -0.4232 
     30 C          27.2432   -0.2575   -2.8513 C.2       2 UNK         0.4993 
     31 O          27.3731    0.2921   -3.9425 O.2       2 UNK        -0.5286 
     32 CA         28.3586   -1.1937   -2.3617 C.3       2 UNK         0.0209 
     33 CB         29.2968   -0.4660   -1.3776 C.3       2 UNK        -0.1931 
     34 N          27.8653   -2.4708   -1.8279 N.am      2 UNK        -0.4546 
     35 C          27.1790   -2.6903   -0.6987 C.2       1 UNK         0.5154 
     36 O          26.9194   -1.8134    0.1271 O.2       1 UNK        -0.5181 
     37 C          27.4642   -0.1587   -7.5296 C.2       5 UNK         0.5014 
     38 O          27.9002   -0.0602   -8.6773 O.2       5 UNK        -0.5248 
     39 N          27.3606    0.8774   -6.6830 N.am      6 UNK        -0.4434 
     40 CA         27.7337    2.2704   -6.9536 C.3       6 UNK         0.0363 
     41 CB         27.4542    3.1191   -5.7033 C.3       6 UNK        -0.1936 
     42 C          27.0590    2.9001   -8.1861 C.2       6 UNK         0.5081 
     43 O          27.6113    3.8462   -8.7473 O.2       6 UNK        -0.5248 
     44 N          25.9242    2.3424   -8.6340 N.am      7 UNK        -0.4718 
     45 CA         25.2685    2.6822   -9.9021 C.3       7 UNK         0.0273 
     46 CB         23.9312    1.9309   -9.9937 C.3       7 UNK        -0.1935 
     47 C          26.1360    2.3923  -11.1453 C.2       7 UNK         0.5018 
     48 O          25.9341    3.0329  -12.1773 O.2       7 UNK        -0.5186 
     49 N          27.0947    1.4640  -11.0185 N.am      8 UNK        -0.4240 
     50 CA         28.1149    1.1433  -12.0173 C.3       8 UNK         0.0235 
     51 CB         28.0385   -0.3633  -12.3273 C.3       8 UNK        -0.2000 
     52 C          29.5186    1.5519  -11.5265 C.2       8 UNK         0.4941 
     53 O          30.5090    0.9935  -12.0031 O.2       8 UNK        -0.5273 
     54 N          29.5931    2.4894  -10.5667 N.am      9 UNK        -0.4262 
     55 CA         30.7757    2.9993   -9.8554 C.3       9 UNK         0.0264 
     56 CB         31.7907    3.6541  -10.8127 C.3       9 UNK        -0.1955 
     57 C          31.4516    1.9637   -8.9392 C.2       9 UNK         0.5031 
     58 O          31.6725    2.2608   -7.7636 O.2       9 UNK        -0.5390 
     59 N          31.7496    0.7768   -9.4849 N.am      10 UNK        -0.4204 
     60 CA         32.3301   -0.4015   -8.8353 C.3       10 UNK         0.0237 
     61 CB         31.2619   -1.1057   -7.9744 C.3       10 UNK        -0.1985 
     62 C          33.6332   -0.0788   -8.0805 C.2       10 UNK         0.4970 
     63 O          34.6640    0.1113   -8.7279 O.2       10 UNK        -0.4914 
     64 N          33.5659   -0.0195   -6.7441 N.am      11 UNK        -0.4285 
     65 CA         34.6848    0.3418   -5.8597 C.3       11 UNK         0.1007 
     66 C          35.1245    1.8331   -5.9576 C.2       11 UNK         0.5703 
     67 N          34.3256    2.7307   -6.5250 N.am      11 UNK        -0.7361 
     68 O          36.2157    2.1794   -5.5108 O.2       11 UNK        -0.4986 
     69 C69        34.4186   -0.0470   -4.3788 C.3       12 UNK        -0.0947 
     70 S70        33.8750   -1.7769   -4.1534 S.3       12 UNK        -0.2240 
     71 C71        32.2584   -1.5095   -3.3641 C.3       12 UNK         0.0194 
     72 H72        23.8217   -5.4744   -3.6846 H         1 UNK         0.0906 
     73 H73        25.4327   -6.1952   -3.6857 H         1 UNK         0.0906 
     74 H74        25.0942   -4.7957   -4.6994 H         1 UNK         0.0906 
     75 H75        26.5411   -5.7047   -1.8326 H         1 UNK         0.3140 
     76 H76        25.7139   -3.9523    0.1125 H         1 UNK         0.1085 
     77 H77        28.1949   -4.3868    1.0445 H         1 UNK         0.0836 
     78 H78        26.9603   -5.5891    1.0506 H         1 UNK         0.0836 
     79 H79        31.0146   -6.0666   -0.6421 H         1 UNK         0.0731 
     80 H80        30.3617   -4.6349    0.1105 H         1 UNK         0.0731 
     81 H81        31.7242   -3.1201   -1.2140 H         1 UNK         0.1312 
     82 H82        30.9384   -2.7022   -5.4024 H         1 UNK         0.1406 
     83 H83        29.1423   -5.9098   -3.2163 H         1 UNK         0.1631 
     84 H84        29.0953   -5.8991   -5.6601 H         1 UNK         0.0717 
     85 H85        29.8637   -4.6319   -6.5795 H         1 UNK         0.0717 
     86 H86        28.5385   -1.7969   -5.5353 H         1 UNK         0.0934 
     87 H87        28.9402   -2.4322   -7.1141 H         1 UNK         0.0934 
     88 H88        26.6241   -2.0793   -7.9064 H         1 UNK         0.0739 
     89 H89        25.9819   -1.6757   -5.1601 H         1 UNK         0.3093 
     90 H90        22.7880   -0.2242   -5.6334 H         1 UNK         0.0818 
     91 H91        22.3134   -2.5631   -6.2603 H         1 UNK         0.0819 
     92 H92        23.4625   -3.1539   -5.0720 H         1 UNK         0.0819 
     93 H93        22.0012   -2.3219   -4.5482 H         1 UNK         0.0819 
     94 H94        24.3204   -1.4408   -3.4362 H         1 UNK         0.3041 
     95 H95        25.4130    1.8011   -2.2671 H         1 UNK         0.0784 
     96 H96        23.1559    1.2719   -1.2949 H         1 UNK         0.0793 
     97 H97        23.6401   -0.4077   -1.0925 H         1 UNK         0.0793 
     98 H98        24.4598    0.8664   -0.1909 H         1 UNK         0.0793 
     99 H99        26.1803   -0.6216   -1.1868 H         1 UNK         0.3024 
    100 H100       28.9491   -1.4524   -3.2391 H         1 UNK         0.1171 
    101 H101       30.0759   -1.1275   -1.0021 H         1 UNK         0.0786 
    102 H102       29.7912    0.3735   -1.8677 H         1 UNK         0.0786 
    103 H103       28.7609   -0.0641   -0.5174 H         1 UNK         0.0786 
    104 H104       28.0042   -3.2699   -2.4321 H         1 UNK         0.2977 
    105 H105       27.0849    0.6771   -5.7226 H         1 UNK         0.3127 
    106 H106       28.8094    2.2817   -7.1403 H         1 UNK         0.0770 
    107 H107       26.4020    3.0792   -5.4179 H         1 UNK         0.0814 
    108 H108       27.7100    4.1660   -5.8723 H         1 UNK         0.0814 
    109 H109       28.0449    2.7780   -4.8530 H         1 UNK         0.0814 
    110 H110       25.5416    1.5581   -8.1219 H         1 UNK         0.2983 
    111 H111       25.0628    3.7547   -9.8927 H         1 UNK         0.0947 
    112 H112       24.0767    0.8498   -9.9991 H         1 UNK         0.0806 
    113 H113       23.3972    2.1931  -10.9081 H         1 UNK         0.0806 
    114 H114       23.2783    2.1763   -9.1559 H         1 UNK         0.0806 
    115 H115       27.2022    0.9877  -10.1248 H         1 UNK         0.3000 
    116 H116       27.9324    1.6935  -12.9424 H         1 UNK         0.0850 
    117 H117       28.7401   -0.6411  -13.1149 H         1 UNK         0.0810 
    118 H118       27.0430   -0.6470  -12.6689 H         1 UNK         0.0810 
    119 H119       28.2758   -0.9650  -11.4487 H         1 UNK         0.0810 
    120 H120       28.7179    2.8729  -10.2257 H         1 UNK         0.3040 
    121 H121       30.3984    3.7874   -9.2014 H         1 UNK         0.0766 
    122 H122       32.2348    2.9344  -11.5007 H         1 UNK         0.0812 
    123 H123       32.6085    4.1117  -10.2544 H         1 UNK         0.0812 
    124 H124       31.3240    4.4403  -11.4060 H         1 UNK         0.0812 
    125 H125       31.5114    0.6713  -10.4698 H         1 UNK         0.3205 
    126 H126       32.6066   -1.0880   -9.6369 H         1 UNK         0.0754 
    127 H127       31.6664   -2.0038   -7.5068 H         1 UNK         0.0769 
    128 H128       30.4247   -1.4183   -8.5985 H         1 UNK         0.0769 
    129 H129       30.8626   -0.4599   -7.1913 H         1 UNK         0.0769 
    130 H130       32.6725   -0.1555   -6.2984 H         1 UNK         0.2981 
    131 H131       35.5440   -0.2435   -6.1927 H         1 UNK         0.0541 
    132 H132       33.4180    2.4632   -6.8949 H         1 UNK         0.3459 
    133 H133       34.6262    3.6903   -6.5808 H         1 UNK         0.3459 
    134 H134       33.6787    0.6261   -3.9416 H         1 UNK         0.0612 
    135 H135       35.3268    0.0869   -3.7883 H         1 UNK         0.0612 
    136 H136       31.7045   -0.7480   -3.9155 H         1 UNK         0.0624 
    137 H137       32.4138   -1.1111   -2.3602 H         1 UNK         0.0624 
@<TRIPOS>BOND
     1    1    2 1    
     2    1   72 1    
     3    1   73 1    
     4    1   74 1    
     5    2    3 2    
     6    2    4 am   BACKBONE|DICT|INTERRES
     7    4    5 1    
     8    4   75 1    
     9    5    6 1    
    10    5   35 1    
    11    5   76 1    
    12    6    7 1    
    13    6   77 1    
    14    6   78 1    
    15    7    8 1    
    16    8    9 1    
    17    8   79 1    
    18    8   80 1    
    19    9   10 ar   
    20    9   14 ar   
    21   10   11 ar   
    22   10   81 1    
    23   11   12 ar   
    24   11   71 1    
    25   12   13 ar   
    26   12   82 1    
    27   13   14 ar   
    28   13   15 1    
    29   14   83 1    
    30   15   16 1    
    31   15   84 1    
    32   15   85 1    
    33   16   17 1    
    34   17   18 1    
    35   17   86 1    
    36   17   87 1    
    37   18   19 1    
    38   18   37 1    
    39   18   88 1    
    40   19   20 am   BACKBONE|DICT|INTERRES
    41   19   89 1    
    42   20   21 2    
    43   20   22 1    
    44   22   23 1    
    45   22   24 1    
    46   22   90 1    
    47   23   91 1    
    48   23   92 1    
    49   23   93 1    
    50   24   25 am   BACKBONE|DICT|INTERRES
    51   24   94 1    
    52   25   26 2    
    53   25   27 1    
    54   27   28 1    
    55   27   29 1    
    56   27   95 1    
    57   28   96 1    
    58   28   97 1    
    59   28   98 1    
    60   29   30 am   BACKBONE|DICT|INTERRES
    61   29   99 1    
    62   30   31 2    
    63   30   32 1    
    64   32   33 1    
    65   32   34 1    
    66   32  100 1    
    67   33  101 1    
    68   33  102 1    
    69   33  103 1    
    70   34   35 am   BACKBONE|DICT|INTERRES
    71   34  104 1    
    72   35   36 2    
    73   37   38 2    
    74   37   39 am   BACKBONE|DICT|INTERRES
    75   39   40 1    
    76   39  105 1    
    77   40   41 1    
    78   40   42 1    
    79   40  106 1    
    80   41  107 1    
    81   41  108 1    
    82   41  109 1    
    83   42   43 2    
    84   42   44 am   BACKBONE|DICT|INTERRES
    85   44   45 1    
    86   44  110 1    
    87   45   46 1    
    88   45   47 1    
    89   45  111 1    
    90   46  112 1    
    91   46  113 1    
    92   46  114 1    
    93   47   48 2    
    94   47   49 am   BACKBONE|DICT|INTERRES
    95   49   50 1    
    96   49  115 1    
    97   50   51 1    
    98   50   52 1    
    99   50  116 1    
   100   51  117 1    
   101   51  118 1    
   102   51  119 1    
   103   52   53 2    
   104   52   54 am   BACKBONE|DICT|INTERRES
   105   54   55 1    
   106   54  120 1    
   107   55   56 1    
   108   55   57 1    
   109   55  121 1    
   110   56  122 1    
   111   56  123 1    
   112   56  124 1    
   113   57   58 2    
   114   57   59 am   BACKBONE|DICT|INTERRES
   115   59   60 1    
   116   59  125 1    
   117   60   61 1    
   118   60   62 1    
   119   60  126 1    
   120   61  127 1    
   121   61  128 1    
   122   61  129 1    
   123   62   63 2    
   124   62   64 am   BACKBONE|DICT|INTERRES
   125   64   65 1    
   126   64  130 1    
   127   65   66 1    
   128   65   69 1    
   129   65  131 1    
   130   66   67 am   BACKBONE|DICT|INTERRES
   131   66   68 2    
   132   67  132 1    
   133   67  133 1    
   134   69   70 1    
   135   69  134 1    
   136   69  135 1    
   137   70   71 1    
   138   71  136 1    
   139   71  137 1    
@<TRIPOS>SUBSTRUCTURE
     1 UNK         1 GROUP             0       ****    0 ROOT    
