@<TRIPOS>MOLECULE
3R137
137   139    1
SMALL
USER_CHARGES


@<TRIPOS>ATOM
      1 CA         24.0204   -3.0901   -8.1638 C.3       0 UNK        -0.2020 
      2 C          23.9776   -4.2833   -7.2206 C.2       0 UNK         0.4855 
      3 O          23.0695   -5.1086   -7.3138 O.2       0 UNK        -0.5197 
      4 N          24.9510   -4.3771   -6.3060 N.am      1 UNK        -0.4892 
      5 CA         25.0776   -5.4474   -5.3064 C.3       1 UNK         0.0835 
      6 C6         26.5358   -5.5582   -4.7921 C.3       12 UNK        -0.0855 
      7 S7         27.2116   -4.0024   -4.1076 S.3       12 UNK        -0.2931 
      8 C8         28.9199   -4.5379   -3.7780 C.3       12 UNK         0.0378 
      9 C9         29.8427   -3.3589   -3.5094 C.ar      12 UNK        -0.0802 
     10 C10        30.7911   -2.9728   -4.4612 C.ar      12 UNK        -0.0944 
     11 C11        31.6535   -1.8997   -4.2144 C.ar      12 UNK        -0.0787 
     12 C12        31.5649   -1.2098   -3.0016 C.ar      12 UNK        -0.0862 
     13 C13        30.6201   -1.5889   -2.0417 C.ar      12 UNK        -0.0733 
     14 C14        29.7662   -2.6660   -2.2992 C.ar      12 UNK        -0.0832 
     15 C15        30.5167   -0.8477   -0.7188 C.3       12 UNK         0.0240 
     16 S16        29.0401    0.2128   -0.6690 S.3       12 UNK        -0.2522 
     17 C17        29.5723    1.6539   -1.6551 C.3       12 UNK        -0.0967 
     18 CA         29.1686    1.5948   -3.1549 C.3       5 UNK         0.0660 
     19 N          27.7408    1.2866   -3.3284 N.am      5 UNK        -0.4015 
     20 C          27.1057    0.8856   -4.4395 C.2       4 UNK         0.4946 
     21 O          27.6298    0.8266   -5.5572 O.2       4 UNK        -0.5353 
     22 CA         25.6378    0.4629   -4.2585 C.3       4 UNK         0.0277 
     23 CB         24.9526    0.0869   -5.5867 C.3       4 UNK        -0.1981 
     24 N          25.5408   -0.6660   -3.3318 N.am      4 UNK        -0.4209 
     25 C          25.5291   -0.5680   -1.9952 C.2       3 UNK         0.4942 
     26 O          25.5851    0.5090   -1.3976 O.2       3 UNK        -0.5208 
     27 CA         25.4579   -1.8955   -1.2143 C.3       3 UNK         0.0250 
     28 CB         25.1422   -1.7024    0.2840 C.3       3 UNK        -0.1990 
     29 N          24.5383   -2.8594   -1.8345 N.am      3 UNK        -0.4232 
     30 C          23.2201   -2.7081   -2.0479 C.2       2 UNK         0.4993 
     31 O          22.5636   -1.7448   -1.6496 O.2       2 UNK        -0.5286 
     32 CA         22.5409   -3.7990   -2.8960 C.3       2 UNK         0.0209 
     33 CB         21.1783   -3.3503   -3.4586 C.3       2 UNK        -0.1931 
     34 N          23.4133   -4.1703   -4.0122 N.am      2 UNK        -0.4546 
     35 C          24.0798   -5.3252   -4.1322 C.2       1 UNK         0.5154 
     36 O          23.9623   -6.2609   -3.3397 O.2       1 UNK        -0.5181 
     37 C          29.6327    2.8628   -3.9132 C.2       5 UNK         0.5014 
     38 O          30.3019    3.7247   -3.3399 O.2       5 UNK        -0.5248 
     39 N          29.2751    2.9477   -5.1936 N.am      6 UNK        -0.4434 
     40 CA         29.6367    3.9918   -6.1444 C.3       6 UNK         0.0363 
     41 CB         28.8203    5.2725   -5.8931 C.3       6 UNK        -0.1936 
     42 C          29.4322    3.4892   -7.5782 C.2       6 UNK         0.5081 
     43 O          30.2442    3.8090   -8.4464 O.2       6 UNK        -0.5248 
     44 N          28.3648    2.7090   -7.8012 N.am      7 UNK        -0.4718 
     45 CA         27.9556    2.2306   -9.1211 C.3       7 UNK         0.0273 
     46 CB         26.4497    2.4876   -9.2954 C.3       7 UNK        -0.1935 
     47 C          28.2552    0.7427   -9.3489 C.2       7 UNK         0.5018 
     48 O          28.5425    0.3842  -10.4913 O.2       7 UNK        -0.5186 
     49 N          28.1807   -0.0837   -8.2894 N.am      8 UNK        -0.4240 
     50 CA         28.1387   -1.5575   -8.3224 C.3       8 UNK         0.0235 
     51 CB         28.2913   -2.1048   -6.8957 C.3       8 UNK        -0.2000 
     52 C          29.1389   -2.2512   -9.2631 C.2       8 UNK         0.4941 
     53 O          28.7485   -3.1503  -10.0090 O.2       8 UNK        -0.5273 
     54 N          30.3924   -1.7936   -9.2298 N.am      9 UNK        -0.4262 
     55 CA         31.4569   -2.1763  -10.1547 C.3       9 UNK         0.0264 
     56 CB         32.3389   -3.2571   -9.4989 C.3       9 UNK        -0.1955 
     57 C          32.2464   -0.9248  -10.5739 C.2       9 UNK         0.5031 
     58 O          33.4713   -0.9927  -10.6883 O.2       9 UNK        -0.5390 
     59 N          31.5352    0.2042  -10.7524 N.am      10 UNK        -0.4204 
     60 CA         32.0688    1.5622  -10.9541 C.3       10 UNK         0.0237 
     61 CB         32.7152    1.6986  -12.3489 C.3       10 UNK        -0.1985 
     62 C          33.0090    1.9818   -9.8036 C.2       10 UNK         0.4970 
     63 O          34.1351    2.4238  -10.0392 O.2       10 UNK        -0.4914 
     64 N          32.5262    1.7675   -8.5748 N.am      11 UNK        -0.4285 
     65 CA         33.2673    1.8940   -7.3119 C.3       11 UNK         0.1007 
     66 C          33.6797    3.3461   -6.9386 C.2       11 UNK         0.5703 
     67 N          33.0395    4.3746   -7.4821 N.am      11 UNK        -0.7361 
     68 O          34.6005    3.5382   -6.1484 O.2       11 UNK        -0.4986 
     69 C69        32.5019    1.2156   -6.1418 C.3       12 UNK        -0.0947 
     70 S70        31.9342   -0.4710   -6.5553 S.3       12 UNK        -0.2240 
     71 C71        32.6836   -1.5041   -5.2611 C.3       12 UNK         0.0194 
     72 H72        23.0917   -2.5240   -8.0954 H         1 UNK         0.0906 
     73 H73        24.8442   -2.4156   -7.9339 H         1 UNK         0.0906 
     74 H74        24.1372   -3.4298   -9.1926 H         1 UNK         0.0906 
     75 H75        25.6859   -3.6848   -6.2765 H         1 UNK         0.3140 
     76 H76        24.8350   -6.3912   -5.8006 H         1 UNK         0.1085 
     77 H77        26.6260   -6.3465   -4.0415 H         1 UNK         0.0836 
     78 H78        27.1766   -5.8696   -5.6189 H         1 UNK         0.0836 
     79 H79        29.2889   -5.1151   -4.6273 H         1 UNK         0.0731 
     80 H80        28.9270   -5.2131   -2.9210 H         1 UNK         0.0731 
     81 H81        30.8589   -3.5050   -5.4003 H         1 UNK         0.1312 
     82 H82        32.2285   -0.3784   -2.8073 H         1 UNK         0.1406 
     83 H83        29.0350   -2.9607   -1.5588 H         1 UNK         0.1631 
     84 H84        31.4119   -0.2547   -0.5253 H         1 UNK         0.0717 
     85 H85        30.4531   -1.5732    0.0935 H         1 UNK         0.0717 
     86 H86        29.1371    2.5388   -1.1864 H         1 UNK         0.0934 
     87 H87        30.6534    1.7685   -1.5551 H         1 UNK         0.0934 
     88 H88        29.7147    0.7669   -3.6097 H         1 UNK         0.0739 
     89 H89        27.1999    1.2719   -2.4700 H         1 UNK         0.3093 
     90 H90        25.1020    1.3191   -3.8427 H         1 UNK         0.0818 
     91 H91        23.8994   -0.1490   -5.4340 H         1 UNK         0.0819 
     92 H92        24.9969    0.9139   -6.2963 H         1 UNK         0.0819 
     93 H93        25.4214   -0.7737   -6.0609 H         1 UNK         0.0819 
     94 H94        25.5597   -1.5888   -3.7395 H         1 UNK         0.3041 
     95 H95        26.4543   -2.3350   -1.2834 H         1 UNK         0.0784 
     96 H96        25.9044   -1.0879    0.7651 H         1 UNK         0.0793 
     97 H97        24.1829   -1.2072    0.4368 H         1 UNK         0.0793 
     98 H98        25.1163   -2.6563    0.8105 H         1 UNK         0.0793 
     99 H99        24.9743   -3.6906   -2.2104 H         1 UNK         0.3024 
    100 H100       22.3708   -4.6531   -2.2362 H         1 UNK         0.1171 
    101 H101       20.7217   -4.1361   -4.0607 H         1 UNK         0.0786 
    102 H102       20.4799   -3.1141   -2.6545 H         1 UNK         0.0786 
    103 H103       21.2719   -2.4613   -4.0835 H         1 UNK         0.0786 
    104 H104       23.5757   -3.4627   -4.7139 H         1 UNK         0.2977 
    105 H105       28.7443    2.1565   -5.5575 H         1 UNK         0.3127 
    106 H106       30.6957    4.2211   -6.0165 H         1 UNK         0.0770 
    107 H107       27.7478    5.0876   -5.9628 H         1 UNK         0.0814 
    108 H108       29.0689    6.0423   -6.6250 H         1 UNK         0.0814 
    109 H109       29.0248    5.6889   -4.9068 H         1 UNK         0.0814 
    110 H110       27.7499    2.4793   -7.0320 H         1 UNK         0.2983 
    111 H111       28.4780    2.7891   -9.9017 H         1 UNK         0.0947 
    112 H112       26.1081    2.1599  -10.2784 H         1 UNK         0.0806 
    113 H113       26.2177    3.5495   -9.2118 H         1 UNK         0.0806 
    114 H114       25.8572    1.9553   -8.5501 H         1 UNK         0.0806 
    115 H115       27.9837    0.3250   -7.3799 H         1 UNK         0.3000 
    116 H116       27.1435   -1.8270   -8.6796 H         1 UNK         0.0850 
    117 H117       29.1964   -1.7308   -6.4189 H         1 UNK         0.0810 
    118 H118       28.3427   -3.1946   -6.8889 H         1 UNK         0.0810 
    119 H119       27.4530   -1.8189   -6.2644 H         1 UNK         0.0810 
    120 H120       30.6276   -1.0853   -8.5469 H         1 UNK         0.3040 
    121 H121       31.0265   -2.5876  -11.0701 H         1 UNK         0.0766 
    122 H122       32.8300   -2.8818   -8.6002 H         1 UNK         0.0812 
    123 H123       33.1180   -3.5970  -10.1822 H         1 UNK         0.0812 
    124 H124       31.7510   -4.1313   -9.2191 H         1 UNK         0.0812 
    125 H125       30.5222    0.1388  -10.6838 H         1 UNK         0.3205 
    126 H126       31.2153    2.2415  -10.9166 H         1 UNK         0.0754 
    127 H127       33.0246    2.7276  -12.5360 H         1 UNK         0.0769 
    128 H128       32.0157    1.4222  -13.1378 H         1 UNK         0.0769 
    129 H129       33.6003    1.0697  -12.4505 H         1 UNK         0.0769 
    130 H130       31.5784    1.4402   -8.4845 H         1 UNK         0.2981 
    131 H131       34.2002    1.3439   -7.4491 H         1 UNK         0.0541 
    132 H132       32.2467    4.2152   -8.0926 H         1 UNK         0.3459 
    133 H133       33.3194    5.3133   -7.2479 H         1 UNK         0.3459 
    134 H134       31.6210    1.7984   -5.8815 H         1 UNK         0.0612 
    135 H135       33.1215    1.1911   -5.2443 H         1 UNK         0.0612 
    136 H136       33.0855   -2.4036   -5.7296 H         1 UNK         0.0624 
    137 H137       33.5352   -1.0003   -4.8026 H         1 UNK         0.0624 
@<TRIPOS>BOND
     1    1    2 1    
     2    1   72 1    
     3    1   73 1    
     4    1   74 1    
     5    2    3 2    
     6    2    4 am   BACKBONE|DICT|INTERRES
     7    4    5 1    
     8    4   75 1    
     9    5    6 1    
    10    5   35 1    
    11    5   76 1    
    12    6    7 1    
    13    6   77 1    
    14    6   78 1    
    15    7    8 1    
    16    8    9 1    
    17    8   79 1    
    18    8   80 1    
    19    9   10 ar   
    20    9   14 ar   
    21   10   11 ar   
    22   10   81 1    
    23   11   12 ar   
    24   11   71 1    
    25   12   13 ar   
    26   12   82 1    
    27   13   14 ar   
    28   13   15 1    
    29   14   83 1    
    30   15   16 1    
    31   15   84 1    
    32   15   85 1    
    33   16   17 1    
    34   17   18 1    
    35   17   86 1    
    36   17   87 1    
    37   18   19 1    
    38   18   37 1    
    39   18   88 1    
    40   19   20 am   BACKBONE|DICT|INTERRES
    41   19   89 1    
    42   20   21 2    
    43   20   22 1    
    44   22   23 1    
    45   22   24 1    
    46   22   90 1    
    47   23   91 1    
    48   23   92 1    
    49   23   93 1    
    50   24   25 am   BACKBONE|DICT|INTERRES
    51   24   94 1    
    52   25   26 2    
    53   25   27 1    
    54   27   28 1    
    55   27   29 1    
    56   27   95 1    
    57   28   96 1    
    58   28   97 1    
    59   28   98 1    
    60   29   30 am   BACKBONE|DICT|INTERRES
    61   29   99 1    
    62   30   31 2    
    63   30   32 1    
    64   32   33 1    
    65   32   34 1    
    66   32  100 1    
    67   33  101 1    
    68   33  102 1    
    69   33  103 1    
    70   34   35 am   BACKBONE|DICT|INTERRES
    71   34  104 1    
    72   35   36 2    
    73   37   38 2    
    74   37   39 am   BACKBONE|DICT|INTERRES
    75   39   40 1    
    76   39  105 1    
    77   40   41 1    
    78   40   42 1    
    79   40  106 1    
    80   41  107 1    
    81   41  108 1    
    82   41  109 1    
    83   42   43 2    
    84   42   44 am   BACKBONE|DICT|INTERRES
    85   44   45 1    
    86   44  110 1    
    87   45   46 1    
    88   45   47 1    
    89   45  111 1    
    90   46  112 1    
    91   46  113 1    
    92   46  114 1    
    93   47   48 2    
    94   47   49 am   BACKBONE|DICT|INTERRES
    95   49   50 1    
    96   49  115 1    
    97   50   51 1    
    98   50   52 1    
    99   50  116 1    
   100   51  117 1    
   101   51  118 1    
   102   51  119 1    
   103   52   53 2    
   104   52   54 am   BACKBONE|DICT|INTERRES
   105   54   55 1    
   106   54  120 1    
   107   55   56 1    
   108   55   57 1    
   109   55  121 1    
   110   56  122 1    
   111   56  123 1    
   112   56  124 1    
   113   57   58 2    
   114   57   59 am   BACKBONE|DICT|INTERRES
   115   59   60 1    
   116   59  125 1    
   117   60   61 1    
   118   60   62 1    
   119   60  126 1    
   120   61  127 1    
   121   61  128 1    
   122   61  129 1    
   123   62   63 2    
   124   62   64 am   BACKBONE|DICT|INTERRES
   125   64   65 1    
   126   64  130 1    
   127   65   66 1    
   128   65   69 1    
   129   65  131 1    
   130   66   67 am   BACKBONE|DICT|INTERRES
   131   66   68 2    
   132   67  132 1    
   133   67  133 1    
   134   69   70 1    
   135   69  134 1    
   136   69  135 1    
   137   70   71 1    
   138   71  136 1    
   139   71  137 1    
@<TRIPOS>SUBSTRUCTURE
     1 UNK         1 GROUP             0       ****    0 ROOT    
