@<TRIPOS>MOLECULE
3R137
137   139    1
SMALL
USER_CHARGES


@<TRIPOS>ATOM
      1 CA         29.6573   -0.3742   -3.0985 C.3       0 UNK        -0.2020 
      2 C          30.1965   -0.5453   -1.6801 C.2       0 UNK         0.4855 
      3 O          30.9394    0.3131   -1.2089 O.2       0 UNK        -0.5197 
      4 N          29.8700   -1.6278   -0.9607 N.am      1 UNK        -0.4892 
      5 CA         28.9280   -2.6932   -1.3273 C.3       1 UNK         0.0835 
      6 C6         29.0849   -3.9437   -0.4207 C.3       12 UNK        -0.0855 
      7 S7         30.8027   -4.5482   -0.2747 S.3       12 UNK        -0.2931 
      8 C8         30.8657   -5.8642   -1.5328 C.3       12 UNK         0.0378 
      9 C9         30.8703   -5.3012   -2.9468 C.ar      12 UNK        -0.0802 
     10 C10        31.9512   -4.5313   -3.3897 C.ar      12 UNK        -0.0944 
     11 C11        31.9653   -4.0064   -4.6844 C.ar      12 UNK        -0.0787 
     12 C12        30.8991   -4.2723   -5.5456 C.ar      12 UNK        -0.0862 
     13 C13        29.8053   -5.0264   -5.1104 C.ar      12 UNK        -0.0733 
     14 C14        29.7996   -5.5476   -3.8127 C.ar      12 UNK        -0.0832 
     15 C15        28.6171   -5.2483   -6.0362 C.3       12 UNK         0.0240 
     16 S16        27.1681   -4.2673   -5.5258 S.3       12 UNK        -0.2522 
     17 C17        27.8102   -2.5612   -5.5961 C.3       12 UNK        -0.0967 
     18 CA         27.1311   -1.6858   -6.6713 C.3       5 UNK         0.0660 
     19 N          25.6757   -1.6077   -6.5090 N.am      5 UNK        -0.4015 
     20 C          24.8322   -1.0203   -7.3698 C.2       4 UNK         0.4946 
     21 O          25.1889   -0.4830   -8.4172 O.2       4 UNK        -0.5353 
     22 CA         23.3483   -0.9809   -6.9714 C.3       4 UNK         0.0277 
     23 CB         22.6766   -2.3372   -7.2392 C.3       4 UNK        -0.1981 
     24 N          23.1667   -0.6038   -5.5683 N.am      4 UNK        -0.4209 
     25 C          23.4487    0.6088   -5.0676 C.2       3 UNK         0.4942 
     26 O          23.7820    1.5735   -5.7554 O.2       3 UNK        -0.5208 
     27 CA         23.3938    0.7570   -3.5349 C.3       3 UNK         0.0250 
     28 CB         21.9905    1.1930   -3.0844 C.3       3 UNK        -0.1990 
     29 N          23.7880   -0.4596   -2.8108 N.am      3 UNK        -0.4232 
     30 C          24.9906   -1.0436   -2.9087 C.2       2 UNK         0.4993 
     31 O          25.9003   -0.6061   -3.6170 O.2       2 UNK        -0.5286 
     32 CA         25.1734   -2.3726   -2.1542 C.3       2 UNK         0.0209 
     33 CB         24.3927   -3.4995   -2.8533 C.3       2 UNK        -0.1931 
     34 N          26.5833   -2.7663   -2.0634 N.am      2 UNK        -0.4546 
     35 C          27.4734   -2.1797   -1.2532 C.2       1 UNK         0.5154 
     36 O          27.1754   -1.2965   -0.4440 O.2       1 UNK        -0.5181 
     37 C          27.7797   -0.2906   -6.6761 C.2       5 UNK         0.5014 
     38 O          28.6640   -0.0381   -7.4938 O.2       5 UNK        -0.5248 
     39 N          27.3081    0.5998   -5.7935 N.am      6 UNK        -0.4434 
     40 CA         27.7328    1.9992   -5.7060 C.3       6 UNK         0.0363 
     41 CB         27.0669    2.6529   -4.4854 C.3       6 UNK        -0.1936 
     42 C          27.4596    2.8207   -6.9826 C.2       6 UNK         0.5081 
     43 O          28.1389    3.8238   -7.1987 O.2       6 UNK        -0.5248 
     44 N          26.4975    2.3844   -7.8064 N.am      7 UNK        -0.4718 
     45 CA         26.2190    2.9499   -9.1245 C.3       7 UNK         0.0273 
     46 CB         24.7014    2.9361   -9.3753 C.3       7 UNK        -0.1935 
     47 C          26.9652    2.1867  -10.2312 C.2       7 UNK         0.5018 
     48 O          27.6157    2.8197  -11.0630 O.2       7 UNK        -0.5186 
     49 N          26.8321    0.8521  -10.2453 N.am      8 UNK        -0.4240 
     50 CA         27.3183   -0.0214  -11.3163 C.3       8 UNK         0.0235 
     51 CB         26.6117   -1.3846  -11.2272 C.3       8 UNK        -0.2000 
     52 C          28.8430   -0.2056  -11.3291 C.2       8 UNK         0.4941 
     53 O          29.4519   -0.0915  -12.3939 O.2       8 UNK        -0.5273 
     54 N          29.4260   -0.5099  -10.1632 N.am      9 UNK        -0.4262 
     55 CA         30.8651   -0.7143   -9.9860 C.3       9 UNK         0.0264 
     56 CB         31.1121   -1.8471   -8.9720 C.3       9 UNK        -0.1955 
     57 C          31.5473    0.5801   -9.5270 C.2       9 UNK         0.5031 
     58 O          32.6340    0.8917  -10.0154 O.2       9 UNK        -0.5390 
     59 N          30.8955    1.2997   -8.5994 N.am      10 UNK        -0.4204 
     60 CA         31.3325    2.5589   -7.9819 C.3       10 UNK         0.0237 
     61 CB         31.3167    3.7070   -9.0131 C.3       10 UNK        -0.1985 
     62 C          32.6704    2.4393   -7.2233 C.2       10 UNK         0.4970 
     63 O          33.4573    3.3880   -7.2021 O.2       10 UNK        -0.4914 
     64 N          32.8992    1.2691   -6.6156 N.am      11 UNK        -0.4285 
     65 CA         34.0553    0.9575   -5.7670 C.3       11 UNK         0.1007 
     66 C          34.0699    1.7427   -4.4233 C.2       11 UNK         0.5703 
     67 N          35.2212    1.8224   -3.7691 N.am      11 UNK        -0.7361 
     68 O          33.0566    2.2649   -3.9612 O.2       11 UNK        -0.4986 
     69 C69        34.2008   -0.5757   -5.5662 C.3       12 UNK        -0.0947 
     70 S70        32.7080   -1.3743   -4.8871 S.3       12 UNK        -0.2240 
     71 C71        33.1130   -3.1255   -5.1477 C.3       12 UNK         0.0194 
     72 H72        29.8566   -1.2577   -3.7031 H         1 UNK         0.0906 
     73 H73        28.5857   -0.1793   -3.0882 H         1 UNK         0.0906 
     74 H74        30.1429    0.4694   -3.5896 H         1 UNK         0.0906 
     75 H75        30.2516   -1.7132   -0.0299 H         1 UNK         0.3140 
     76 H76        29.1377   -2.9952   -2.3548 H         1 UNK         0.1085 
     77 H77        28.7399   -3.7229    0.5919 H         1 UNK         0.0836 
     78 H78        28.4512   -4.7576   -0.7785 H         1 UNK         0.0836 
     79 H79        31.7759   -6.4469   -1.3840 H         1 UNK         0.0731 
     80 H80        30.0345   -6.5549   -1.3825 H         1 UNK         0.0731 
     81 H81        32.7725   -4.3250   -2.7168 H         1 UNK         0.1312 
     82 H82        30.9074   -3.8603   -6.5455 H         1 UNK         0.1406 
     83 H83        28.9536   -6.1322   -3.4769 H         1 UNK         0.1631 
     84 H84        28.3486   -6.3056   -6.0358 H         1 UNK         0.0717 
     85 H85        28.8729   -4.9969   -7.0668 H         1 UNK         0.0717 
     86 H86        27.6885   -2.1249   -4.6060 H         1 UNK         0.0934 
     87 H87        28.8842   -2.5756   -5.7747 H         1 UNK         0.0934 
     88 H88        27.3239   -2.1362   -7.6474 H         1 UNK         0.0739 
     89 H89        25.3089   -1.9915   -5.6521 H         1 UNK         0.3093 
     90 H90        22.8580   -0.2276   -7.5922 H         1 UNK         0.0818 
     91 H91        21.6068   -2.2968   -7.0334 H         1 UNK         0.0819 
     92 H92        22.7921   -2.6279   -8.2845 H         1 UNK         0.0819 
     93 H93        23.1059   -3.1342   -6.6306 H         1 UNK         0.0819 
     94 H94        22.8703   -1.3276   -4.9307 H         1 UNK         0.3041 
     95 H95        24.0999    1.5436   -3.2604 H         1 UNK         0.0784 
     96 H96        21.6850    2.1084   -3.5935 H         1 UNK         0.0793 
     97 H97        21.2396    0.4326   -3.3030 H         1 UNK         0.0793 
     98 H98        21.9623    1.3963   -2.0137 H         1 UNK         0.0793 
     99 H99        23.0876   -0.8768   -2.2141 H         1 UNK         0.3024 
    100 H100       24.7826   -2.2458   -1.1416 H         1 UNK         0.1171 
    101 H101       24.7142   -3.6389   -3.8856 H         1 UNK         0.0786 
    102 H102       24.5205   -4.4498   -2.3343 H         1 UNK         0.0786 
    103 H103       23.3225   -3.2902   -2.8714 H         1 UNK         0.0786 
    104 H104       26.8909   -3.4793   -2.7091 H         1 UNK         0.2977 
    105 H105       26.6264    0.2820   -5.1065 H         1 UNK         0.3127 
    106 H106       28.8127    2.0006   -5.5450 H         1 UNK         0.0770 
    107 H107       25.9830    2.6929   -4.5935 H         1 UNK         0.0814 
    108 H108       27.4187    3.6767   -4.3516 H         1 UNK         0.0814 
    109 H109       27.2930    2.1089   -3.5681 H         1 UNK         0.0814 
    110 H110       25.9808    1.5534   -7.5489 H         1 UNK         0.2983 
    111 H111       26.5499    3.9905   -9.1584 H         1 UNK         0.0947 
    112 H112       24.4638    3.3576  -10.3529 H         1 UNK         0.0806 
    113 H113       24.1742    3.5304   -8.6287 H         1 UNK         0.0806 
    114 H114       24.2895    1.9268   -9.3455 H         1 UNK         0.0806 
    115 H115       26.2563    0.4088   -9.5297 H         1 UNK         0.3000 
    116 H116       27.0375    0.4351  -12.2682 H         1 UNK         0.0850 
    117 H117       26.9351   -2.0470  -12.0314 H         1 UNK         0.0810 
    118 H118       25.5303   -1.2756  -11.3119 H         1 UNK         0.0810 
    119 H119       26.8212   -1.8891  -10.2831 H         1 UNK         0.0810 
    120 H120       28.8649   -0.5080   -9.3166 H         1 UNK         0.3040 
    121 H121       31.3160   -1.0140  -10.9347 H         1 UNK         0.0766 
    122 H122       30.6520   -2.7787   -9.3013 H         1 UNK         0.0812 
    123 H123       30.7180   -1.6117   -7.9833 H         1 UNK         0.0812 
    124 H124       32.1800   -2.0370   -8.8558 H         1 UNK         0.0812 
    125 H125       30.0258    0.9106   -8.2366 H         1 UNK         0.3205 
    126 H126       30.5901    2.7944   -7.2200 H         1 UNK         0.0754 
    127 H127       31.5089    4.6674   -8.5334 H         1 UNK         0.0769 
    128 H128       30.3453    3.7811   -9.5030 H         1 UNK         0.0769 
    129 H129       32.0742    3.5693   -9.7853 H         1 UNK         0.0769 
    130 H130       32.1895    0.5541   -6.6569 H         1 UNK         0.2981 
    131 H131       34.9364    1.2916   -6.3184 H         1 UNK         0.0541 
    132 H132       36.0598    1.3970   -4.1320 H         1 UNK         0.3459 
    133 H133       35.2510    2.3202   -2.8932 H         1 UNK         0.3459 
    134 H134       35.0493   -0.8081   -4.9205 H         1 UNK         0.0612 
    135 H135       34.4244   -1.0404   -6.5279 H         1 UNK         0.0612 
    136 H136       33.3164   -3.3006   -6.2053 H         1 UNK         0.0624 
    137 H137       34.0274   -3.3721   -4.6061 H         1 UNK         0.0624 
@<TRIPOS>BOND
     1    1    2 1    
     2    1   72 1    
     3    1   73 1    
     4    1   74 1    
     5    2    3 2    
     6    2    4 am   BACKBONE|DICT|INTERRES
     7    4    5 1    
     8    4   75 1    
     9    5    6 1    
    10    5   35 1    
    11    5   76 1    
    12    6    7 1    
    13    6   77 1    
    14    6   78 1    
    15    7    8 1    
    16    8    9 1    
    17    8   79 1    
    18    8   80 1    
    19    9   10 ar   
    20    9   14 ar   
    21   10   11 ar   
    22   10   81 1    
    23   11   12 ar   
    24   11   71 1    
    25   12   13 ar   
    26   12   82 1    
    27   13   14 ar   
    28   13   15 1    
    29   14   83 1    
    30   15   16 1    
    31   15   84 1    
    32   15   85 1    
    33   16   17 1    
    34   17   18 1    
    35   17   86 1    
    36   17   87 1    
    37   18   19 1    
    38   18   37 1    
    39   18   88 1    
    40   19   20 am   BACKBONE|DICT|INTERRES
    41   19   89 1    
    42   20   21 2    
    43   20   22 1    
    44   22   23 1    
    45   22   24 1    
    46   22   90 1    
    47   23   91 1    
    48   23   92 1    
    49   23   93 1    
    50   24   25 am   BACKBONE|DICT|INTERRES
    51   24   94 1    
    52   25   26 2    
    53   25   27 1    
    54   27   28 1    
    55   27   29 1    
    56   27   95 1    
    57   28   96 1    
    58   28   97 1    
    59   28   98 1    
    60   29   30 am   BACKBONE|DICT|INTERRES
    61   29   99 1    
    62   30   31 2    
    63   30   32 1    
    64   32   33 1    
    65   32   34 1    
    66   32  100 1    
    67   33  101 1    
    68   33  102 1    
    69   33  103 1    
    70   34   35 am   BACKBONE|DICT|INTERRES
    71   34  104 1    
    72   35   36 2    
    73   37   38 2    
    74   37   39 am   BACKBONE|DICT|INTERRES
    75   39   40 1    
    76   39  105 1    
    77   40   41 1    
    78   40   42 1    
    79   40  106 1    
    80   41  107 1    
    81   41  108 1    
    82   41  109 1    
    83   42   43 2    
    84   42   44 am   BACKBONE|DICT|INTERRES
    85   44   45 1    
    86   44  110 1    
    87   45   46 1    
    88   45   47 1    
    89   45  111 1    
    90   46  112 1    
    91   46  113 1    
    92   46  114 1    
    93   47   48 2    
    94   47   49 am   BACKBONE|DICT|INTERRES
    95   49   50 1    
    96   49  115 1    
    97   50   51 1    
    98   50   52 1    
    99   50  116 1    
   100   51  117 1    
   101   51  118 1    
   102   51  119 1    
   103   52   53 2    
   104   52   54 am   BACKBONE|DICT|INTERRES
   105   54   55 1    
   106   54  120 1    
   107   55   56 1    
   108   55   57 1    
   109   55  121 1    
   110   56  122 1    
   111   56  123 1    
   112   56  124 1    
   113   57   58 2    
   114   57   59 am   BACKBONE|DICT|INTERRES
   115   59   60 1    
   116   59  125 1    
   117   60   61 1    
   118   60   62 1    
   119   60  126 1    
   120   61  127 1    
   121   61  128 1    
   122   61  129 1    
   123   62   63 2    
   124   62   64 am   BACKBONE|DICT|INTERRES
   125   64   65 1    
   126   64  130 1    
   127   65   66 1    
   128   65   69 1    
   129   65  131 1    
   130   66   67 am   BACKBONE|DICT|INTERRES
   131   66   68 2    
   132   67  132 1    
   133   67  133 1    
   134   69   70 1    
   135   69  134 1    
   136   69  135 1    
   137   70   71 1    
   138   71  136 1    
   139   71  137 1    
@<TRIPOS>SUBSTRUCTURE
     1 UNK         1 GROUP             0       ****    0 ROOT    
