@<TRIPOS>MOLECULE
3R137
137   139    1
SMALL
USER_CHARGES


@<TRIPOS>ATOM
      1 CA         32.0805   -0.9043    2.1428 C.3       0 UNK        -0.2020 
      2 C          31.4020   -1.4420    0.8919 C.2       0 UNK         0.4855 
      3 O          31.8769   -1.1950   -0.2168 O.2       0 UNK        -0.5197 
      4 N          30.2984   -2.1819    1.0585 N.am      1 UNK        -0.4892 
      5 CA         29.4849   -2.7117   -0.0361 C.3       1 UNK         0.0835 
      6 C6         28.6692   -3.9474    0.4196 C.3       12 UNK        -0.0855 
      7 S7         27.7466   -4.7741   -0.9233 S.3       12 UNK        -0.2931 
      8 C8         29.0346   -5.7742   -1.7352 C.3       12 UNK         0.0378 
      9 C9         29.3194   -5.2539   -3.1365 C.ar      12 UNK        -0.0802 
     10 C10        30.3931   -4.3897   -3.3711 C.ar      12 UNK        -0.0944 
     11 C11        30.6330   -3.8874   -4.6531 C.ar      12 UNK        -0.0787 
     12 C12        29.8156   -4.2865   -5.7136 C.ar      12 UNK        -0.0862 
     13 C13        28.7386   -5.1510   -5.4926 C.ar      12 UNK        -0.0733 
     14 C14        28.4957   -5.6311   -4.2022 C.ar      12 UNK        -0.0832 
     15 C15        27.8262   -5.5514   -6.6437 C.3       12 UNK         0.0240 
     16 S16        26.3548   -4.4815   -6.7426 S.3       12 UNK        -0.2522 
     17 C17        27.1300   -2.8776   -7.1285 C.3       12 UNK        -0.0967 
     18 CA         26.1345   -1.8220   -7.6619 C.3       5 UNK         0.0660 
     19 N          25.0056   -1.6062   -6.7521 N.am      5 UNK        -0.4015 
     20 C          23.9144   -0.8689   -7.0107 C.2       4 UNK         0.4946 
     21 O          23.7501   -0.2390   -8.0565 O.2       4 UNK        -0.5353 
     22 CA         22.8098   -0.8346   -5.9354 C.3       4 UNK         0.0277 
     23 CB         21.6108   -1.6919   -6.3738 C.3       4 UNK        -0.1981 
     24 N          23.2857   -1.3105   -4.6336 N.am      4 UNK        -0.4209 
     25 C          23.9287   -0.5485   -3.7392 C.2       3 UNK         0.4942 
     26 O          24.0186    0.6780   -3.8294 O.2       3 UNK        -0.5208 
     27 CA         24.6140   -1.2752   -2.5598 C.3       3 UNK         0.0250 
     28 CB         24.6741   -2.8130   -2.7154 C.3       3 UNK        -0.1990 
     29 N          25.9648   -0.7644   -2.2927 N.am      3 UNK        -0.4232 
     30 C          26.9587   -0.5860   -3.1759 C.2       2 UNK         0.4993 
     31 O          26.8656   -0.8161   -4.3818 O.2       2 UNK        -0.5286 
     32 CA         28.2971   -0.0805   -2.6184 C.3       2 UNK         0.0209 
     33 CB         28.1693    1.2751   -1.8911 C.3       2 UNK        -0.1931 
     34 N          28.9777   -1.0919   -1.8028 N.am      2 UNK        -0.4546 
     35 C          28.6095   -1.5805   -0.6097 C.2       1 UNK         0.5154 
     36 O          27.6459   -1.1707    0.0433 O.2       1 UNK        -0.5181 
     37 C          26.8891   -0.5200   -7.9809 C.2       5 UNK         0.5014 
     38 O          27.3370   -0.3501   -9.1150 O.2       5 UNK        -0.5248 
     39 N          26.9976    0.3783   -6.9908 N.am      6 UNK        -0.4434 
     40 CA         27.6750    1.6812   -7.0392 C.3       6 UNK         0.0363 
     41 CB         27.5244    2.3647   -5.6708 C.3       6 UNK        -0.1936 
     42 C          27.2409    2.6403   -8.1661 C.2       6 UNK         0.5081 
     43 O          27.9442    3.6177   -8.4220 O.2       6 UNK        -0.5248 
     44 N          26.1188    2.3506   -8.8387 N.am      7 UNK        -0.4718 
     45 CA         25.7040    3.0017  -10.0826 C.3       7 UNK         0.0273 
     46 CB         24.2709    2.5608  -10.4206 C.3       7 UNK        -0.1935 
     47 C          26.6497    2.7170  -11.2692 C.2       7 UNK         0.5018 
     48 O          26.6753    3.5148  -12.2076 O.2       7 UNK        -0.5186 
     49 N          27.3971    1.6039  -11.2162 N.am      8 UNK        -0.4240 
     50 CA         28.3620    1.1911  -12.2384 C.3       8 UNK         0.0235 
     51 CB         27.7491    0.0685  -13.0929 C.3       8 UNK        -0.2000 
     52 C          29.7091    0.7444  -11.6454 C.2       8 UNK         0.4941 
     53 O          30.7392    0.9744  -12.2813 O.2       8 UNK        -0.5273 
     54 N          29.6978    0.0988  -10.4705 N.am      9 UNK        -0.4262 
     55 CA         30.8897   -0.4127   -9.7901 C.3       9 UNK         0.0264 
     56 CB         30.4637   -1.4126   -8.7017 C.3       9 UNK        -0.1955 
     57 C          31.7345    0.7114   -9.1719 C.2       9 UNK         0.5031 
     58 O          31.1886    1.7236   -8.7258 O.2       9 UNK        -0.5390 
     59 N          33.0520    0.4762   -9.0963 N.am      10 UNK        -0.4204 
     60 CA         34.0529    1.3981   -8.5433 C.3       10 UNK         0.0237 
     61 CB         35.4575    0.8205   -8.7841 C.3       10 UNK        -0.1985 
     62 C          33.8611    1.7392   -7.0530 C.2       10 UNK         0.4970 
     63 O          34.3398    2.7858   -6.6143 O.2       10 UNK        -0.4914 
     64 N          33.1616    0.8708   -6.3113 N.am      11 UNK        -0.4285 
     65 CA         32.7162    1.1135   -4.9324 C.3       11 UNK         0.1007 
     66 C          31.5656    2.1567   -4.7903 C.2       11 UNK         0.5703 
     67 N          30.9542    2.6353   -5.8685 N.am      11 UNK        -0.7361 
     68 O          31.2356    2.5548   -3.6762 O.2       11 UNK        -0.4986 
     69 C69        32.4128   -0.2149   -4.1908 C.3       12 UNK        -0.0947 
     70 S70        31.0755   -1.1982   -4.9527 S.3       12 UNK        -0.2240 
     71 C71        31.7522   -2.8857   -4.8835 C.3       12 UNK         0.0194 
     72 H72        33.1059   -1.2687    2.1990 H         1 UNK         0.0906 
     73 H73        32.1070    0.1847    2.1157 H         1 UNK         0.0906 
     74 H74        31.5623   -1.2086    3.0520 H         1 UNK         0.0906 
     75 H75        29.9306   -2.3247    1.9890 H         1 UNK         0.3140 
     76 H76        30.1651   -3.0483   -0.8174 H         1 UNK         0.1085 
     77 H77        29.3295   -4.6804    0.8861 H         1 UNK         0.0836 
     78 H78        27.9532   -3.6642    1.1936 H         1 UNK         0.0836 
     79 H79        29.9483   -5.7880   -1.1392 H         1 UNK         0.0731 
     80 H80        28.6948   -6.8096   -1.7898 H         1 UNK         0.0731 
     81 H81        31.0402   -4.0975   -2.5570 H         1 UNK         0.1312 
     82 H82        30.0015   -3.8976   -6.7052 H         1 UNK         0.1406 
     83 H83        27.6553   -6.2887   -4.0243 H         1 UNK         0.1631 
     84 H84        27.5026   -6.5854   -6.5154 H         1 UNK         0.0717 
     85 H85        28.3666   -5.5181   -7.5911 H         1 UNK         0.0717 
     86 H86        27.6303   -2.5168   -6.2274 H         1 UNK         0.0934 
     87 H87        27.9148   -3.0510   -7.8667 H         1 UNK         0.0934 
     88 H88        25.7203   -2.1909   -8.6027 H         1 UNK         0.0739 
     89 H89        25.0881   -2.0509   -5.8503 H         1 UNK         0.3093 
     90 H90        22.4731    0.2004   -5.8432 H         1 UNK         0.0818 
     91 H91        20.7992   -1.6398   -5.6477 H         1 UNK         0.0819 
     92 H92        21.2117   -1.3446   -7.3281 H         1 UNK         0.0819 
     93 H93        21.8849   -2.7403   -6.4982 H         1 UNK         0.0819 
     94 H94        23.2247   -2.3042   -4.4620 H         1 UNK         0.3041 
     95 H95        24.0172   -1.0497   -1.6750 H         1 UNK         0.0784 
     96 H96        23.6787   -3.2531   -2.7842 H         1 UNK         0.0793 
     97 H97        25.2427   -3.1143   -3.5968 H         1 UNK         0.0793 
     98 H98        25.1558   -3.2696   -1.8505 H         1 UNK         0.0793 
     99 H99        26.1911   -0.5914   -1.3192 H         1 UNK         0.3024 
    100 H100       28.9419    0.0875   -3.4813 H         1 UNK         0.1171 
    101 H101       29.1506    1.6655   -1.6206 H         1 UNK         0.0786 
    102 H102       27.5734    1.2126   -0.9811 H         1 UNK         0.0786 
    103 H103       27.6938    2.0180   -2.5321 H         1 UNK         0.0786 
    104 H104       29.7953   -1.4954   -2.2399 H         1 UNK         0.2977 
    105 H105       26.6721    0.0838   -6.0724 H         1 UNK         0.3127 
    106 H106       28.7341    1.4774   -7.2069 H         1 UNK         0.0770 
    107 H107       26.4794    2.4344   -5.3661 H         1 UNK         0.0814 
    108 H108       27.9306    3.3770   -5.6805 H         1 UNK         0.0814 
    109 H109       28.0660    1.8147   -4.9041 H         1 UNK         0.0814 
    110 H110       25.5914    1.5348   -8.5563 H         1 UNK         0.2983 
    111 H111       25.7042    4.0812   -9.9166 H         1 UNK         0.0947 
    112 H112       23.9173    3.0437  -11.3327 H         1 UNK         0.0806 
    113 H113       23.5755    2.8255   -9.6238 H         1 UNK         0.0806 
    114 H114       24.2072    1.4826  -10.5751 H         1 UNK         0.0806 
    115 H115       27.3042    0.9991  -10.4039 H         1 UNK         0.3000 
    116 H116       28.5836    2.0345  -12.8960 H         1 UNK         0.0850 
    117 H117       28.4478   -0.2654  -13.8612 H         1 UNK         0.0810 
    118 H118       26.8462    0.4073  -13.6012 H         1 UNK         0.0810 
    119 H119       27.4870   -0.8000  -12.4872 H         1 UNK         0.0810 
    120 H120       28.8123   -0.0581   -9.9927 H         1 UNK         0.3040 
    121 H121       31.4954   -0.9429  -10.5284 H         1 UNK         0.0766 
    122 H122       31.3311   -1.8739   -8.2282 H         1 UNK         0.0812 
    123 H123       29.8593   -2.2175   -9.1196 H         1 UNK         0.0812 
    124 H124       29.8850   -0.9286   -7.9139 H         1 UNK         0.0812 
    125 H125       33.4071   -0.3913   -9.4733 H         1 UNK         0.3205 
    126 H126       33.9698    2.3360   -9.0966 H         1 UNK         0.0754 
    127 H127       36.2280    1.4977   -8.4122 H         1 UNK         0.0769 
    128 H128       35.6493    0.6700   -9.8467 H         1 UNK         0.0769 
    129 H129       35.5933   -0.1362   -8.2778 H         1 UNK         0.0769 
    130 H130       32.7933    0.0417   -6.7509 H         1 UNK         0.2981 
    131 H131       33.5617    1.5642   -4.4093 H         1 UNK         0.0541 
    132 H132       31.1929    2.3118   -6.7999 H         1 UNK         0.3459 
    133 H133       30.2347    3.3283   -5.7518 H         1 UNK         0.3459 
    134 H134       32.1471   -0.0240   -3.1492 H         1 UNK         0.0612 
    135 H135       33.3243   -0.8128   -4.1549 H         1 UNK         0.0612 
    136 H136       32.2760   -3.1060   -5.8147 H         1 UNK         0.0624 
    137 H137       32.4898   -2.9647   -4.0835 H         1 UNK         0.0624 
@<TRIPOS>BOND
     1    1    2 1    
     2    1   72 1    
     3    1   73 1    
     4    1   74 1    
     5    2    3 2    
     6    2    4 am   BACKBONE|DICT|INTERRES
     7    4    5 1    
     8    4   75 1    
     9    5    6 1    
    10    5   35 1    
    11    5   76 1    
    12    6    7 1    
    13    6   77 1    
    14    6   78 1    
    15    7    8 1    
    16    8    9 1    
    17    8   79 1    
    18    8   80 1    
    19    9   10 ar   
    20    9   14 ar   
    21   10   11 ar   
    22   10   81 1    
    23   11   12 ar   
    24   11   71 1    
    25   12   13 ar   
    26   12   82 1    
    27   13   14 ar   
    28   13   15 1    
    29   14   83 1    
    30   15   16 1    
    31   15   84 1    
    32   15   85 1    
    33   16   17 1    
    34   17   18 1    
    35   17   86 1    
    36   17   87 1    
    37   18   19 1    
    38   18   37 1    
    39   18   88 1    
    40   19   20 am   BACKBONE|DICT|INTERRES
    41   19   89 1    
    42   20   21 2    
    43   20   22 1    
    44   22   23 1    
    45   22   24 1    
    46   22   90 1    
    47   23   91 1    
    48   23   92 1    
    49   23   93 1    
    50   24   25 am   BACKBONE|DICT|INTERRES
    51   24   94 1    
    52   25   26 2    
    53   25   27 1    
    54   27   28 1    
    55   27   29 1    
    56   27   95 1    
    57   28   96 1    
    58   28   97 1    
    59   28   98 1    
    60   29   30 am   BACKBONE|DICT|INTERRES
    61   29   99 1    
    62   30   31 2    
    63   30   32 1    
    64   32   33 1    
    65   32   34 1    
    66   32  100 1    
    67   33  101 1    
    68   33  102 1    
    69   33  103 1    
    70   34   35 am   BACKBONE|DICT|INTERRES
    71   34  104 1    
    72   35   36 2    
    73   37   38 2    
    74   37   39 am   BACKBONE|DICT|INTERRES
    75   39   40 1    
    76   39  105 1    
    77   40   41 1    
    78   40   42 1    
    79   40  106 1    
    80   41  107 1    
    81   41  108 1    
    82   41  109 1    
    83   42   43 2    
    84   42   44 am   BACKBONE|DICT|INTERRES
    85   44   45 1    
    86   44  110 1    
    87   45   46 1    
    88   45   47 1    
    89   45  111 1    
    90   46  112 1    
    91   46  113 1    
    92   46  114 1    
    93   47   48 2    
    94   47   49 am   BACKBONE|DICT|INTERRES
    95   49   50 1    
    96   49  115 1    
    97   50   51 1    
    98   50   52 1    
    99   50  116 1    
   100   51  117 1    
   101   51  118 1    
   102   51  119 1    
   103   52   53 2    
   104   52   54 am   BACKBONE|DICT|INTERRES
   105   54   55 1    
   106   54  120 1    
   107   55   56 1    
   108   55   57 1    
   109   55  121 1    
   110   56  122 1    
   111   56  123 1    
   112   56  124 1    
   113   57   58 2    
   114   57   59 am   BACKBONE|DICT|INTERRES
   115   59   60 1    
   116   59  125 1    
   117   60   61 1    
   118   60   62 1    
   119   60  126 1    
   120   61  127 1    
   121   61  128 1    
   122   61  129 1    
   123   62   63 2    
   124   62   64 am   BACKBONE|DICT|INTERRES
   125   64   65 1    
   126   64  130 1    
   127   65   66 1    
   128   65   69 1    
   129   65  131 1    
   130   66   67 am   BACKBONE|DICT|INTERRES
   131   66   68 2    
   132   67  132 1    
   133   67  133 1    
   134   69   70 1    
   135   69  134 1    
   136   69  135 1    
   137   70   71 1    
   138   71  136 1    
   139   71  137 1    
@<TRIPOS>SUBSTRUCTURE
     1 UNK         1 GROUP             0       ****    0 ROOT    
