@<TRIPOS>MOLECULE
3R137
137   139    1
SMALL
USER_CHARGES


@<TRIPOS>ATOM
      1 CA         26.6698    0.8288    1.8792 C.3       0 UNK        -0.2020 
      2 C          27.6234   -0.1622    1.2292 C.2       0 UNK         0.4855 
      3 O          28.8205    0.1099    1.1385 O.2       0 UNK        -0.5197 
      4 N          27.1041   -1.3088    0.7802 N.am      1 UNK        -0.4892 
      5 CA         27.8396   -2.3506    0.0699 C.3       1 UNK         0.0835 
      6 C6         28.7483   -3.1759    1.0205 C.3       12 UNK        -0.0855 
      7 S7         29.8711   -4.3487    0.1842 S.3       12 UNK        -0.2931 
      8 C8         31.2659   -3.2817   -0.3065 C.3       12 UNK         0.0378 
      9 C9         31.0001   -2.5872   -1.6349 C.ar      12 UNK        -0.0802 
     10 C10        30.9673   -3.3352   -2.8160 C.ar      12 UNK        -0.0944 
     11 C11        30.7079   -2.7185   -4.0429 C.ar      12 UNK        -0.0787 
     12 C12        30.4787   -1.3410   -4.0834 C.ar      12 UNK        -0.0862 
     13 C13        30.5197   -0.5797   -2.9112 C.ar      12 UNK        -0.0733 
     14 C14        30.7913   -1.2051   -1.6905 C.ar      12 UNK        -0.0832 
     15 C15        30.2681    0.9198   -2.9685 C.3       12 UNK         0.0240 
     16 S16        28.6190    1.3878   -2.3436 S.3       12 UNK        -0.2522 
     17 C17        27.4844    0.3055   -3.2796 C.3       12 UNK        -0.0967 
     18 CA         27.4028    0.6060   -4.7987 C.3       5 UNK         0.0660 
     19 N          26.9497   -0.5733   -5.5504 N.am      5 UNK        -0.4015 
     20 C          26.9883   -0.6960   -6.8878 C.2       4 UNK         0.4946 
     21 O          27.4470    0.1740   -7.6234 O.2       4 UNK        -0.5353 
     22 CA         26.3885   -1.9579   -7.5398 C.3       4 UNK         0.0277 
     23 CB         27.4997   -2.8899   -8.0513 C.3       4 UNK        -0.1981 
     24 N          25.4816   -2.7175   -6.6768 N.am      4 UNK        -0.4209 
     25 C          24.3097   -2.2742   -6.1990 C.2       3 UNK         0.4942 
     26 O          23.8212   -1.1822   -6.4914 O.2       3 UNK        -0.5208 
     27 CA         23.6018   -3.1729   -5.1642 C.3       3 UNK         0.0250 
     28 CB         22.6014   -4.1084   -5.8615 C.3       3 UNK        -0.1990 
     29 N          24.5130   -3.9675   -4.3228 N.am      3 UNK        -0.4232 
     30 C          25.5060   -3.4581   -3.5788 C.2       2 UNK         0.4993 
     31 O          25.7765   -2.2562   -3.5522 O.2       2 UNK        -0.5286 
     32 CA         26.3844   -4.4550   -2.8016 C.3       2 UNK         0.0209 
     33 CB         27.2894   -5.2372   -3.7695 C.3       2 UNK        -0.1931 
     34 N          27.2396   -3.7688   -1.8301 N.am      2 UNK        -0.4546 
     35 C          26.8110   -3.1968   -0.6985 C.2       1 UNK         0.5154 
     36 O          25.6580   -3.2998   -0.2666 O.2       1 UNK        -0.5181 
     37 C          26.5776    1.8788   -5.1045 C.2       5 UNK         0.5014 
     38 O          27.0823    2.9850   -4.9081 O.2       5 UNK        -0.5248 
     39 N          25.3531    1.7171   -5.6339 N.am      6 UNK        -0.4434 
     40 CA         24.5057    2.8045   -6.1368 C.3       6 UNK         0.0363 
     41 CB         23.1254    2.2367   -6.5029 C.3       6 UNK        -0.1936 
     42 C          25.1093    3.5639   -7.3374 C.2       6 UNK         0.5081 
     43 O          24.7409    4.7167   -7.5641 O.2       6 UNK        -0.5248 
     44 N          26.0288    2.9238   -8.0695 N.am      7 UNK        -0.4718 
     45 CA         26.8179    3.5090   -9.1487 C.3       7 UNK         0.0273 
     46 CB         26.1325    3.2338  -10.5012 C.3       7 UNK        -0.1935 
     47 C          28.2246    2.9077   -9.0471 C.2       7 UNK         0.5018 
     48 O          28.6407    2.1780   -9.9465 O.2       7 UNK        -0.5186 
     49 N          28.8901    3.1823   -7.9123 N.am      8 UNK        -0.4240 
     50 CA         30.0706    2.5006   -7.3543 C.3       8 UNK         0.0235 
     51 CB         30.6217    3.3289   -6.1828 C.3       8 UNK        -0.2000 
     52 C          31.2090    2.1127   -8.3143 C.2       8 UNK         0.4941 
     53 O          31.8683    1.1020   -8.0684 O.2       8 UNK        -0.5273 
     54 N          31.3960    2.8674   -9.4065 N.am      9 UNK        -0.4262 
     55 CA         32.2925    2.5313  -10.5196 C.3       9 UNK         0.0264 
     56 CB         32.2373    3.6505  -11.5712 C.3       9 UNK        -0.1955 
     57 C          31.9955    1.1642  -11.1720 C.2       9 UNK         0.5031 
     58 O          32.9220    0.5275  -11.6760 O.2       9 UNK        -0.5390 
     59 N          30.7351    0.7068  -11.1025 N.am      10 UNK        -0.4204 
     60 CA         30.2863   -0.6255  -11.5173 C.3       10 UNK         0.0237 
     61 CB         28.7539   -0.6995  -11.4087 C.3       10 UNK        -0.1985 
     62 C          30.9321   -1.7818  -10.7294 C.2       10 UNK         0.4970 
     63 O          30.9673   -2.8992  -11.2463 O.2       10 UNK        -0.4914 
     64 N          31.4419   -1.5074   -9.5192 N.am      11 UNK        -0.4285 
     65 CA         32.2485   -2.4490   -8.7295 C.3       11 UNK         0.1007 
     66 C          33.7082   -2.6242   -9.2532 C.2       11 UNK         0.5703 
     67 N          34.1896   -1.8164  -10.1932 N.am      11 UNK        -0.7361 
     68 O          34.4177   -3.5252   -8.8130 O.2       11 UNK        -0.4986 
     69 C69        32.2032   -2.0937   -7.2165 C.3       12 UNK        -0.0947 
     70 S70        32.2860   -3.5742   -6.1492 S.3       12 UNK        -0.2240 
     71 C71        30.6681   -3.5465   -5.3179 C.3       12 UNK         0.0194 
     72 H72        26.9811    1.0328    2.9033 H         1 UNK         0.0906 
     73 H73        26.6748    1.7684    1.3273 H         1 UNK         0.0906 
     74 H74        25.6464    0.4548    1.9034 H         1 UNK         0.0906 
     75 H75        26.1103   -1.4978    0.8495 H         1 UNK         0.3140 
     76 H76        28.4534   -1.8466   -0.6749 H         1 UNK         0.1085 
     77 H77        28.1353   -3.7376    1.7278 H         1 UNK         0.0836 
     78 H78        29.3586   -2.5099    1.6318 H         1 UNK         0.0836 
     79 H79        32.1601   -3.8990   -0.4049 H         1 UNK         0.0731 
     80 H80        31.4812   -2.5594    0.4826 H         1 UNK         0.0731 
     81 H81        31.1395   -4.4025   -2.7769 H         1 UNK         0.1312 
     82 H82        30.2687   -0.8605   -5.0284 H         1 UNK         0.1406 
     83 H83        30.8119   -0.6164   -0.7823 H         1 UNK         0.1631 
     84 H84        30.3863    1.2907   -3.9868 H         1 UNK         0.0717 
     85 H85        31.0243    1.4349   -2.3746 H         1 UNK         0.0717 
     86 H86        27.8171   -0.7196   -3.1146 H         1 UNK         0.0934 
     87 H87        26.4948    0.3576   -2.8214 H         1 UNK         0.0934 
     88 H88        28.4120    0.8098   -5.1548 H         1 UNK         0.0739 
     89 H89        26.5224   -1.3082   -4.9905 H         1 UNK         0.3093 
     90 H90        25.8131   -1.6150   -8.4025 H         1 UNK         0.0818 
     91 H91        27.0951   -3.6601   -8.7081 H         1 UNK         0.0819 
     92 H92        28.2486   -2.3410   -8.6244 H         1 UNK         0.0819 
     93 H93        28.0151   -3.3898   -7.2327 H         1 UNK         0.0819 
     94 H94        25.7965   -3.6289   -6.3791 H         1 UNK         0.3041 
     95 H95        23.0434   -2.5119   -4.4980 H         1 UNK         0.0784 
     96 H96        21.8998   -3.5416   -6.4756 H         1 UNK         0.0793 
     97 H97        23.1033   -4.8228   -6.5154 H         1 UNK         0.0793 
     98 H98        22.0117   -4.6711   -5.1374 H         1 UNK         0.0793 
     99 H99        24.3561   -4.9655   -4.3083 H         1 UNK         0.3024 
    100 H100       25.7331   -5.1500   -2.2665 H         1 UNK         0.1171 
    101 H101       27.9390   -5.9292   -3.2328 H         1 UNK         0.0786 
    102 H102       26.7027   -5.8303   -4.4720 H         1 UNK         0.0786 
    103 H103       27.9237   -4.5702   -4.3548 H         1 UNK         0.0786 
    104 H104       28.2037   -3.6324   -2.0991 H         1 UNK         0.2977 
    105 H105       25.0069    0.7763   -5.7761 H         1 UNK         0.3127 
    106 H106       24.3775    3.5261   -5.3274 H         1 UNK         0.0770 
    107 H107       23.1934    1.4980   -7.3028 H         1 UNK         0.0814 
    108 H108       22.4555    3.0270   -6.8446 H         1 UNK         0.0814 
    109 H109       22.6510    1.7587   -5.6456 H         1 UNK         0.0814 
    110 H110       26.3052    1.9837   -7.8015 H         1 UNK         0.2983 
    111 H111       26.9105    4.5889   -9.0127 H         1 UNK         0.0947 
    112 H112       26.7180    3.6430  -11.3254 H         1 UNK         0.0806 
    113 H113       25.1445    3.6920  -10.5447 H         1 UNK         0.0806 
    114 H114       26.0145    2.1645  -10.6821 H         1 UNK         0.0806 
    115 H115       28.4178    3.7944   -7.2615 H         1 UNK         0.3000 
    116 H116       29.7010    1.5578   -6.9495 H         1 UNK         0.0850 
    117 H117       31.4888    2.8445   -5.7308 H         1 UNK         0.0810 
    118 H118       29.8763    3.4511   -5.3963 H         1 UNK         0.0810 
    119 H119       30.9353    4.3220   -6.5064 H         1 UNK         0.0810 
    120 H120       30.7885    3.6632   -9.5369 H         1 UNK         0.3040 
    121 H121       33.3069    2.4848  -10.1182 H         1 UNK         0.0766 
    122 H122       32.5375    4.6094  -11.1482 H         1 UNK         0.0812 
    123 H123       31.2352    3.7637  -11.9869 H         1 UNK         0.0812 
    124 H124       32.9129    3.4391  -12.4014 H         1 UNK         0.0812 
    125 H125       30.0261    1.2988  -10.6661 H         1 UNK         0.3205 
    126 H126       30.5636   -0.7533  -12.5655 H         1 UNK         0.0754 
    127 H127       28.3815   -1.6707  -11.7373 H         1 UNK         0.0769 
    128 H128       28.2755    0.0586  -12.0291 H         1 UNK         0.0769 
    129 H129       28.4160   -0.5491  -10.3821 H         1 UNK         0.0769 
    130 H130       31.4117   -0.5564   -9.1674 H         1 UNK         0.2981 
    131 H131       31.7756   -3.4256   -8.8497 H         1 UNK         0.0541 
    132 H132       33.6285   -1.0722  -10.5911 H         1 UNK         0.3459 
    133 H133       35.1325   -1.9565  -10.5191 H         1 UNK         0.3459 
    134 H134       31.2820   -1.5574   -6.9889 H         1 UNK         0.0612 
    135 H135       33.0082   -1.4090   -6.9430 H         1 UNK         0.0612 
    136 H136       30.3814   -4.5730   -5.0852 H         1 UNK         0.0624 
    137 H137       29.9053   -3.1645   -5.9949 H         1 UNK         0.0624 
@<TRIPOS>BOND
     1    1    2 1    
     2    1   72 1    
     3    1   73 1    
     4    1   74 1    
     5    2    3 2    
     6    2    4 am   BACKBONE|DICT|INTERRES
     7    4    5 1    
     8    4   75 1    
     9    5    6 1    
    10    5   35 1    
    11    5   76 1    
    12    6    7 1    
    13    6   77 1    
    14    6   78 1    
    15    7    8 1    
    16    8    9 1    
    17    8   79 1    
    18    8   80 1    
    19    9   10 ar   
    20    9   14 ar   
    21   10   11 ar   
    22   10   81 1    
    23   11   12 ar   
    24   11   71 1    
    25   12   13 ar   
    26   12   82 1    
    27   13   14 ar   
    28   13   15 1    
    29   14   83 1    
    30   15   16 1    
    31   15   84 1    
    32   15   85 1    
    33   16   17 1    
    34   17   18 1    
    35   17   86 1    
    36   17   87 1    
    37   18   19 1    
    38   18   37 1    
    39   18   88 1    
    40   19   20 am   BACKBONE|DICT|INTERRES
    41   19   89 1    
    42   20   21 2    
    43   20   22 1    
    44   22   23 1    
    45   22   24 1    
    46   22   90 1    
    47   23   91 1    
    48   23   92 1    
    49   23   93 1    
    50   24   25 am   BACKBONE|DICT|INTERRES
    51   24   94 1    
    52   25   26 2    
    53   25   27 1    
    54   27   28 1    
    55   27   29 1    
    56   27   95 1    
    57   28   96 1    
    58   28   97 1    
    59   28   98 1    
    60   29   30 am   BACKBONE|DICT|INTERRES
    61   29   99 1    
    62   30   31 2    
    63   30   32 1    
    64   32   33 1    
    65   32   34 1    
    66   32  100 1    
    67   33  101 1    
    68   33  102 1    
    69   33  103 1    
    70   34   35 am   BACKBONE|DICT|INTERRES
    71   34  104 1    
    72   35   36 2    
    73   37   38 2    
    74   37   39 am   BACKBONE|DICT|INTERRES
    75   39   40 1    
    76   39  105 1    
    77   40   41 1    
    78   40   42 1    
    79   40  106 1    
    80   41  107 1    
    81   41  108 1    
    82   41  109 1    
    83   42   43 2    
    84   42   44 am   BACKBONE|DICT|INTERRES
    85   44   45 1    
    86   44  110 1    
    87   45   46 1    
    88   45   47 1    
    89   45  111 1    
    90   46  112 1    
    91   46  113 1    
    92   46  114 1    
    93   47   48 2    
    94   47   49 am   BACKBONE|DICT|INTERRES
    95   49   50 1    
    96   49  115 1    
    97   50   51 1    
    98   50   52 1    
    99   50  116 1    
   100   51  117 1    
   101   51  118 1    
   102   51  119 1    
   103   52   53 2    
   104   52   54 am   BACKBONE|DICT|INTERRES
   105   54   55 1    
   106   54  120 1    
   107   55   56 1    
   108   55   57 1    
   109   55  121 1    
   110   56  122 1    
   111   56  123 1    
   112   56  124 1    
   113   57   58 2    
   114   57   59 am   BACKBONE|DICT|INTERRES
   115   59   60 1    
   116   59  125 1    
   117   60   61 1    
   118   60   62 1    
   119   60  126 1    
   120   61  127 1    
   121   61  128 1    
   122   61  129 1    
   123   62   63 2    
   124   62   64 am   BACKBONE|DICT|INTERRES
   125   64   65 1    
   126   64  130 1    
   127   65   66 1    
   128   65   69 1    
   129   65  131 1    
   130   66   67 am   BACKBONE|DICT|INTERRES
   131   66   68 2    
   132   67  132 1    
   133   67  133 1    
   134   69   70 1    
   135   69  134 1    
   136   69  135 1    
   137   70   71 1    
   138   71  136 1    
   139   71  137 1    
@<TRIPOS>SUBSTRUCTURE
     1 UNK         1 GROUP             0       ****    0 ROOT    
