@<TRIPOS>MOLECULE
3R137
137   139    1
SMALL
USER_CHARGES


@<TRIPOS>ATOM
      1 CA         26.4477   -6.6252   -3.1560 C.3       0 UNK        -0.2020 
      2 C          26.0749   -6.0958   -1.7803 C.2       0 UNK         0.4855 
      3 O          25.0425   -6.4851   -1.2345 O.2       0 UNK        -0.5197 
      4 N          26.9113   -5.2178   -1.2112 N.am      1 UNK        -0.4892 
      5 CA         26.6995   -4.5906    0.0999 C.3       1 UNK         0.0835 
      6 C6         28.0151   -4.0128    0.6856 C.3       12 UNK        -0.0855 
      7 S7         28.8162   -2.7687   -0.3881 S.3       12 UNK        -0.2931 
      8 C8         30.2265   -3.6927   -1.0766 C.3       12 UNK         0.0378 
      9 C9         30.5118   -3.2165   -2.4910 C.ar      12 UNK        -0.0802 
     10 C10        31.2342   -2.0377   -2.7056 C.ar      12 UNK        -0.0944 
     11 C11        31.4379   -1.5488   -3.9998 C.ar      12 UNK        -0.0787 
     12 C12        30.8919   -2.2558   -5.0782 C.ar      12 UNK        -0.0862 
     13 C13        30.1813   -3.4419   -4.8832 C.ar      12 UNK        -0.0733 
     14 C14        30.0127   -3.9297   -3.5849 C.ar      12 UNK        -0.0832 
     15 C15        29.6000   -4.1748   -6.0888 C.3       12 UNK         0.0240 
     16 S16        27.8444   -4.6510   -5.9174 S.3       12 UNK        -0.2522 
     17 C17        27.0328   -3.1526   -5.2648 C.3       12 UNK        -0.0967 
     18 CA         26.6594   -2.1141   -6.3548 C.3       5 UNK         0.0660 
     19 N          25.4154   -1.4156   -6.0250 N.am      5 UNK        -0.4015 
     20 C          24.7160   -0.6528   -6.8783 C.2       4 UNK         0.4946 
     21 O          25.0163   -0.4989   -8.0615 O.2       4 UNK        -0.5353 
     22 CA         23.4985    0.1001   -6.3104 C.3       4 UNK         0.0277 
     23 CB         22.2298   -0.7583   -6.4344 C.3       4 UNK        -0.1981 
     24 N          23.6737    0.5146   -4.9155 N.am      4 UNK        -0.4209 
     25 C          24.6178    1.3658   -4.4885 C.2       3 UNK         0.4942 
     26 O          25.3921    1.9539   -5.2408 O.2       3 UNK        -0.5208 
     27 CA         24.7650    1.5565   -2.9690 C.3       3 UNK         0.0250 
     28 CB         23.9866    2.7988   -2.5083 C.3       3 UNK        -0.1990 
     29 N          24.3575    0.3975   -2.1642 N.am      3 UNK        -0.4232 
     30 C          24.8824   -0.8328   -2.2527 C.2       2 UNK         0.4993 
     31 O          25.7301   -1.1646   -3.0876 O.2       2 UNK        -0.5286 
     32 CA         24.3205   -1.8793   -1.2866 C.3       2 UNK         0.0209 
     33 CB         23.0470   -2.5228   -1.8627 C.3       2 UNK        -0.1931 
     34 N          25.3281   -2.9120   -1.0712 N.am      2 UNK        -0.4546 
     35 C          25.5614   -3.5445    0.0858 C.2       1 UNK         0.5154 
     36 O          24.9151   -3.3419    1.1155 O.2       1 UNK        -0.5181 
     37 C          27.7952   -1.0996   -6.5852 C.2       5 UNK         0.5014 
     38 O          28.4941   -1.1793   -7.5960 O.2       5 UNK        -0.5248 
     39 N          27.9214   -0.1366   -5.6599 N.am      6 UNK        -0.4434 
     40 CA         28.9015    0.9499   -5.7109 C.3       6 UNK         0.0363 
     41 CB         28.8940    1.7040   -4.3719 C.3       6 UNK        -0.1936 
     42 C          28.6849    1.9203   -6.8846 C.2       6 UNK         0.5081 
     43 O          29.6582    2.4786   -7.3865 O.2       6 UNK        -0.5248 
     44 N          27.4248    2.1070   -7.2988 N.am      7 UNK        -0.4718 
     45 CA         27.0479    2.8809   -8.4813 C.3       7 UNK         0.0273 
     46 CB         25.5545    3.2366   -8.4031 C.3       7 UNK        -0.1935 
     47 C          27.3600    2.1435   -9.7951 C.2       7 UNK         0.5018 
     48 O          27.7534    2.7922  -10.7655 O.2       7 UNK        -0.5186 
     49 N          27.1579    0.8177   -9.8155 N.am      8 UNK        -0.4240 
     50 CA         27.4066   -0.0382  -10.9772 C.3       8 UNK         0.0235 
     51 CB         26.6708   -1.3770  -10.8010 C.3       8 UNK        -0.2000 
     52 C          28.9034   -0.2722  -11.2354 C.2       8 UNK         0.4941 
     53 O          29.3397   -0.1788  -12.3842 O.2       8 UNK        -0.5273 
     54 N          29.6548   -0.5930  -10.1753 N.am      9 UNK        -0.4262 
     55 CA         31.0967   -0.8381  -10.2229 C.3       9 UNK         0.0264 
     56 CB         31.4870   -1.6638   -8.9900 C.3       9 UNK        -0.1955 
     57 C          31.9045    0.4694  -10.2591 C.2       9 UNK         0.5031 
     58 O          31.3937    1.5348   -9.9096 O.2       9 UNK        -0.5390 
     59 N          33.1875    0.3597  -10.6233 N.am      10 UNK        -0.4204 
     60 CA         34.1527    1.4635  -10.6496 C.3       10 UNK         0.0237 
     61 CB         35.2466    1.1409  -11.6862 C.3       10 UNK        -0.1985 
     62 C          34.7304    1.7748   -9.2510 C.2       10 UNK         0.4970 
     63 O          35.9510    1.8515   -9.0970 O.2       10 UNK        -0.4914 
     64 N          33.8522    1.9424   -8.2541 N.am      11 UNK        -0.4285 
     65 CA         34.2135    2.2954   -6.8691 C.3       11 UNK         0.1007 
     66 C          34.5590    3.8000   -6.6651 C.2       11 UNK         0.5703 
     67 N          34.3152    4.6807   -7.6291 N.am      11 UNK        -0.7361 
     68 O          35.0720    4.1740   -5.6129 O.2       11 UNK        -0.4986 
     69 C69        33.1395    1.8287   -5.8513 C.3       12 UNK        -0.0947 
     70 S70        32.9166    0.0206   -5.8455 S.3       12 UNK        -0.2240 
     71 C71        32.1943   -0.2307   -4.1854 C.3       12 UNK         0.0194 
     72 H72        25.8015   -6.1860   -3.9156 H         1 UNK         0.0906 
     73 H73        27.4818   -6.3986   -3.4124 H         1 UNK         0.0906 
     74 H74        26.3253   -7.7075   -3.1893 H         1 UNK         0.0906 
     75 H75        27.7374   -4.9135   -1.7041 H         1 UNK         0.3140 
     76 H76        26.3682   -5.3772    0.7822 H         1 UNK         0.1085 
     77 H77        28.7150   -4.8251    0.8874 H         1 UNK         0.0836 
     78 H78        27.8261   -3.5533    1.6579 H         1 UNK         0.0836 
     79 H79        31.1022   -3.5471   -0.4423 H         1 UNK         0.0731 
     80 H80        30.0196   -4.7639   -1.0772 H         1 UNK         0.0731 
     81 H81        31.6145   -1.4851   -1.8571 H         1 UNK         0.1312 
     82 H82        31.0022   -1.8799   -6.0814 H         1 UNK         0.1406 
     83 H83        29.4612   -4.8459   -3.4295 H         1 UNK         0.1631 
     84 H84        30.1888   -5.0752   -6.2670 H         1 UNK         0.0717 
     85 H85        29.6961   -3.5682   -6.9899 H         1 UNK         0.0717 
     86 H86        26.1241   -3.5135   -4.7801 H         1 UNK         0.0934 
     87 H87        27.6153   -2.7117   -4.4539 H         1 UNK         0.0934 
     88 H88        26.4871   -2.6392   -7.2971 H         1 UNK         0.0739 
     89 H89        25.1517   -1.4236   -5.0462 H         1 UNK         0.3093 
     90 H90        23.3619    1.0025   -6.9101 H         1 UNK         0.0818 
     91 H91        21.3443   -0.2067   -6.1183 H         1 UNK         0.0819 
     92 H92        22.0663   -1.0632   -7.4692 H         1 UNK         0.0819 
     93 H93        22.2937   -1.6665   -5.8336 H         1 UNK         0.0819 
     94 H94        23.0702    0.0864   -4.2290 H         1 UNK         0.3041 
     95 H95        25.8253    1.7273   -2.7717 H         1 UNK         0.0784 
     96 H96        24.2889    3.6809   -3.0751 H         1 UNK         0.0793 
     97 H97        22.9114    2.6765   -2.6451 H         1 UNK         0.0793 
     98 H98        24.1701    3.0159   -1.4558 H         1 UNK         0.0793 
     99 H99        23.6485    0.5704   -1.4655 H         1 UNK         0.3024 
    100 H100       24.0884   -1.3857   -0.3398 H         1 UNK         0.1171 
    101 H101       22.2671   -1.7784   -2.0276 H         1 UNK         0.0786 
    102 H102       22.6402   -3.2702   -1.1810 H         1 UNK         0.0786 
    103 H103       23.2404   -3.0143   -2.8173 H         1 UNK         0.0786 
    104 H104       25.9527   -3.0680   -1.8514 H         1 UNK         0.2977 
    105 H105       27.2915   -0.1441   -4.8691 H         1 UNK         0.3127 
    106 H106       29.8840    0.4966   -5.8488 H         1 UNK         0.0770 
    107 H107       27.9401    2.2015   -4.1946 H         1 UNK         0.0814 
    108 H108       29.6687    2.4717   -4.3559 H         1 UNK         0.0814 
    109 H109       29.0840    1.0319   -3.5347 H         1 UNK         0.0814 
    110 H110       26.6709    1.7135   -6.7440 H         1 UNK         0.2983 
    111 H111       27.6204    3.8112   -8.4788 H         1 UNK         0.0947 
    112 H112       25.2537    3.8471   -9.2556 H         1 UNK         0.0806 
    113 H113       25.3290    3.8047   -7.5003 H         1 UNK         0.0806 
    114 H114       24.9270    2.3448   -8.4020 H         1 UNK         0.0806 
    115 H115       26.7851    0.3670   -8.9876 H         1 UNK         0.3000 
    116 H116       26.9930    0.4574  -11.8583 H         1 UNK         0.0850 
    117 H117       26.8432   -2.0341  -11.6543 H         1 UNK         0.0810 
    118 H118       25.5940   -1.2278  -10.7189 H         1 UNK         0.0810 
    119 H119       27.0021   -1.9066   -9.9068 H         1 UNK         0.0810 
    120 H120       29.2143   -0.6500   -9.2591 H         1 UNK         0.3040 
    121 H121       31.3267   -1.4154  -11.1211 H         1 UNK         0.0766 
    122 H122       32.5460   -1.9242   -8.9954 H         1 UNK         0.0812 
    123 H123       30.9218   -2.5942   -8.9364 H         1 UNK         0.0812 
    124 H124       31.2931   -1.0970   -8.0812 H         1 UNK         0.0812 
    125 H125       33.5491   -0.5554  -10.8524 H         1 UNK         0.3205 
    126 H126       33.6418    2.3681  -10.9867 H         1 UNK         0.0754 
    127 H127       35.9520    1.9676  -11.7826 H         1 UNK         0.0769 
    128 H128       34.8187    0.9694  -12.6742 H         1 UNK         0.0769 
    129 H129       35.8181    0.2542  -11.4089 H         1 UNK         0.0769 
    130 H130       32.8623    1.8796   -8.4671 H         1 UNK         0.2981 
    131 H131       35.1319    1.7577   -6.6254 H         1 UNK         0.0541 
    132 H132       33.8887    4.3885   -8.4933 H         1 UNK         0.3459 
    133 H133       34.5505    5.6497   -7.4832 H         1 UNK         0.3459 
    134 H134       32.1771    2.2974   -6.0649 H         1 UNK         0.0612 
    135 H135       33.4149    2.1340   -4.8399 H         1 UNK         0.0612 
    136 H136       33.0011   -0.1633   -3.4541 H         1 UNK         0.0624 
    137 H137       31.5104    0.5885   -3.9664 H         1 UNK         0.0624 
@<TRIPOS>BOND
     1    1    2 1    
     2    1   72 1    
     3    1   73 1    
     4    1   74 1    
     5    2    3 2    
     6    2    4 am   BACKBONE|DICT|INTERRES
     7    4    5 1    
     8    4   75 1    
     9    5    6 1    
    10    5   35 1    
    11    5   76 1    
    12    6    7 1    
    13    6   77 1    
    14    6   78 1    
    15    7    8 1    
    16    8    9 1    
    17    8   79 1    
    18    8   80 1    
    19    9   10 ar   
    20    9   14 ar   
    21   10   11 ar   
    22   10   81 1    
    23   11   12 ar   
    24   11   71 1    
    25   12   13 ar   
    26   12   82 1    
    27   13   14 ar   
    28   13   15 1    
    29   14   83 1    
    30   15   16 1    
    31   15   84 1    
    32   15   85 1    
    33   16   17 1    
    34   17   18 1    
    35   17   86 1    
    36   17   87 1    
    37   18   19 1    
    38   18   37 1    
    39   18   88 1    
    40   19   20 am   BACKBONE|DICT|INTERRES
    41   19   89 1    
    42   20   21 2    
    43   20   22 1    
    44   22   23 1    
    45   22   24 1    
    46   22   90 1    
    47   23   91 1    
    48   23   92 1    
    49   23   93 1    
    50   24   25 am   BACKBONE|DICT|INTERRES
    51   24   94 1    
    52   25   26 2    
    53   25   27 1    
    54   27   28 1    
    55   27   29 1    
    56   27   95 1    
    57   28   96 1    
    58   28   97 1    
    59   28   98 1    
    60   29   30 am   BACKBONE|DICT|INTERRES
    61   29   99 1    
    62   30   31 2    
    63   30   32 1    
    64   32   33 1    
    65   32   34 1    
    66   32  100 1    
    67   33  101 1    
    68   33  102 1    
    69   33  103 1    
    70   34   35 am   BACKBONE|DICT|INTERRES
    71   34  104 1    
    72   35   36 2    
    73   37   38 2    
    74   37   39 am   BACKBONE|DICT|INTERRES
    75   39   40 1    
    76   39  105 1    
    77   40   41 1    
    78   40   42 1    
    79   40  106 1    
    80   41  107 1    
    81   41  108 1    
    82   41  109 1    
    83   42   43 2    
    84   42   44 am   BACKBONE|DICT|INTERRES
    85   44   45 1    
    86   44  110 1    
    87   45   46 1    
    88   45   47 1    
    89   45  111 1    
    90   46  112 1    
    91   46  113 1    
    92   46  114 1    
    93   47   48 2    
    94   47   49 am   BACKBONE|DICT|INTERRES
    95   49   50 1    
    96   49  115 1    
    97   50   51 1    
    98   50   52 1    
    99   50  116 1    
   100   51  117 1    
   101   51  118 1    
   102   51  119 1    
   103   52   53 2    
   104   52   54 am   BACKBONE|DICT|INTERRES
   105   54   55 1    
   106   54  120 1    
   107   55   56 1    
   108   55   57 1    
   109   55  121 1    
   110   56  122 1    
   111   56  123 1    
   112   56  124 1    
   113   57   58 2    
   114   57   59 am   BACKBONE|DICT|INTERRES
   115   59   60 1    
   116   59  125 1    
   117   60   61 1    
   118   60   62 1    
   119   60  126 1    
   120   61  127 1    
   121   61  128 1    
   122   61  129 1    
   123   62   63 2    
   124   62   64 am   BACKBONE|DICT|INTERRES
   125   64   65 1    
   126   64  130 1    
   127   65   66 1    
   128   65   69 1    
   129   65  131 1    
   130   66   67 am   BACKBONE|DICT|INTERRES
   131   66   68 2    
   132   67  132 1    
   133   67  133 1    
   134   69   70 1    
   135   69  134 1    
   136   69  135 1    
   137   70   71 1    
   138   71  136 1    
   139   71  137 1    
@<TRIPOS>SUBSTRUCTURE
     1 UNK         1 GROUP             0       ****    0 ROOT    
