@<TRIPOS>MOLECULE
3R137
137   139    1
SMALL
USER_CHARGES


@<TRIPOS>ATOM
      1 CA         24.8929   -6.7729   -1.2839 C.3       0 UNK        -0.2020 
      2 C          25.3406   -5.3259   -1.4112 C.2       0 UNK         0.4855 
      3 O          24.8060   -4.5943   -2.2444 O.2       0 UNK        -0.5197 
      4 N          26.2980   -4.8977   -0.5753 N.am      1 UNK        -0.4892 
      5 CA         26.9500   -3.5733   -0.5754 C.3       1 UNK         0.0835 
      6 C6         27.8069   -3.3110   -1.8426 C.3       12 UNK        -0.0855 
      7 S7         28.9846   -4.6465   -2.2597 S.3       12 UNK        -0.2931 
      8 C8         30.6043   -3.8278   -2.0885 C.3       12 UNK         0.0378 
      9 C9         30.7356   -2.6042   -2.9865 C.ar      12 UNK        -0.0802 
     10 C10        30.8943   -2.7456   -4.3677 C.ar      12 UNK        -0.0944 
     11 C11        31.0122   -1.6194   -5.1909 C.ar      12 UNK        -0.0787 
     12 C12        30.9687   -0.3430   -4.6188 C.ar      12 UNK        -0.0862 
     13 C13        30.7667   -0.1908   -3.2424 C.ar      12 UNK        -0.0733 
     14 C14        30.6783   -1.3240   -2.4316 C.ar      12 UNK        -0.0832 
     15 C15        30.6211    1.1893   -2.6150 C.3       12 UNK         0.0240 
     16 S16        29.1845    2.1265   -3.2395 S.3       12 UNK        -0.2522 
     17 C17        27.7826    0.9450   -3.2000 C.3       12 UNK        -0.0967 
     18 CA         27.4290    0.3892   -4.6085 C.3       5 UNK         0.0660 
     19 N          26.7027   -0.8843   -4.5361 N.am      5 UNK        -0.4015 
     20 C          26.7283   -1.8227   -5.4963 C.2       4 UNK         0.4946 
     21 O          27.5011   -1.7920   -6.4536 O.2       4 UNK        -0.5353 
     22 CA         25.6897   -2.9612   -5.4294 C.3       4 UNK         0.0277 
     23 CB         26.3494   -4.3498   -5.3491 C.3       4 UNK        -0.1981 
     24 N          24.6729   -2.8284   -4.3776 N.am      4 UNK        -0.4209 
     25 C          23.6820   -1.9248   -4.3926 C.2       3 UNK         0.4942 
     26 O          23.6140   -1.0171   -5.2202 O.2       3 UNK        -0.5208 
     27 CA         22.5966   -2.0371   -3.3143 C.3       3 UNK         0.0250 
     28 CB         21.6521   -3.2111   -3.6229 C.3       3 UNK        -0.1990 
     29 N          23.1737   -2.2176   -1.9818 N.am      3 UNK        -0.4232 
     30 C          23.0315   -1.3602   -0.9597 C.2       2 UNK         0.4993 
     31 O          22.3986   -0.3060   -1.0327 O.2       2 UNK        -0.5286 
     32 CA         23.6906   -1.7327    0.3845 C.3       2 UNK         0.0209 
     33 CB         22.6460   -2.3177    1.3496 C.3       2 UNK        -0.1931 
     34 N          24.8005   -2.6797    0.2521 N.am      2 UNK        -0.4546 
     35 C          25.9725   -2.3960   -0.3324 C.2       1 UNK         0.5154 
     36 O          26.2714   -1.2616   -0.7110 O.2       1 UNK        -0.5181 
     37 C          26.7201    1.4206   -5.5278 C.2       5 UNK         0.5014 
     38 O          27.2876    2.4810   -5.7901 O.2       5 UNK        -0.5248 
     39 N          25.5205    1.1164   -6.0542 N.am      6 UNK        -0.4434 
     40 CA         24.9244    1.8568   -7.1714 C.3       6 UNK         0.0363 
     41 CB         23.4895    1.3653   -7.4199 C.3       6 UNK        -0.1936 
     42 C          25.7947    1.6860   -8.4310 C.2       6 UNK         0.5081 
     43 O          26.0499    0.5492   -8.8321 O.2       6 UNK        -0.5248 
     44 N          26.2560    2.8123   -8.9947 N.am      7 UNK        -0.4718 
     45 CA         27.2843    2.9135  -10.0416 C.3       7 UNK         0.0273 
     46 CB         26.8178    2.2693  -11.3656 C.3       7 UNK        -0.1935 
     47 C          28.6502    2.3850   -9.5544 C.2       7 UNK         0.5018 
     48 O          29.2723    1.5556  -10.2224 O.2       7 UNK        -0.5186 
     49 N          29.0922    2.9001   -8.3940 N.am      8 UNK        -0.4240 
     50 CA         30.3115    2.5319   -7.6563 C.3       8 UNK         0.0235 
     51 CB         30.5087    3.5048   -6.4821 C.3       8 UNK        -0.2000 
     52 C          31.6067    2.4802   -8.4831 C.2       8 UNK         0.4941 
     53 O          32.4917    1.6880   -8.1590 O.2       8 UNK        -0.5273 
     54 N          31.6779    3.2868   -9.5530 N.am      9 UNK        -0.4262 
     55 CA         32.7546    3.3142  -10.5478 C.3       9 UNK         0.0264 
     56 CB         32.4280    4.3707  -11.6153 C.3       9 UNK        -0.1955 
     57 C          33.0454    1.9539  -11.2110 C.2       9 UNK         0.5031 
     58 O          34.1780    1.7373  -11.6441 O.2       9 UNK        -0.5390 
     59 N          32.0597    1.0416  -11.2275 N.am      10 UNK        -0.4204 
     60 CA         32.2209   -0.3587  -11.6335 C.3       10 UNK         0.0237 
     61 CB         30.8502   -1.0536  -11.6044 C.3       10 UNK        -0.1985 
     62 C          33.2372   -1.1458  -10.7797 C.2       10 UNK         0.4970 
     63 O          33.8199   -2.1046  -11.2880 O.2       10 UNK        -0.4914 
     64 N          33.4449   -0.7236   -9.5251 N.am      11 UNK        -0.4285 
     65 CA         34.4674   -1.2507   -8.6091 C.3       11 UNK         0.1007 
     66 C          35.7643   -0.3886   -8.5834 C.2       11 UNK         0.5703 
     67 N          35.9277    0.6151   -9.4392 N.am      11 UNK        -0.7361 
     68 O          36.6612   -0.6492   -7.7846 O.2       11 UNK        -0.4986 
     69 C69        33.8894   -1.4836   -7.1865 C.3       12 UNK        -0.0947 
     70 S70        32.5789   -2.7515   -7.1949 S.3       12 UNK        -0.2240 
     71 C71        31.1159   -1.7878   -6.7019 C.3       12 UNK         0.0194 
     72 H72        23.8284   -6.8171   -1.0557 H         1 UNK         0.0906 
     73 H73        25.0621   -7.2980   -2.2235 H         1 UNK         0.0906 
     74 H74        25.4327   -7.3005   -0.4979 H         1 UNK         0.0906 
     75 H75        26.6803   -5.5521    0.0940 H         1 UNK         0.3140 
     76 H76        27.6253   -3.5703    0.2817 H         1 UNK         0.1085 
     77 H77        27.1614   -3.1492   -2.7033 H         1 UNK         0.0836 
     78 H78        28.3531   -2.3781   -1.7192 H         1 UNK         0.0836 
     79 H79        31.3894   -4.5431   -2.3380 H         1 UNK         0.0731 
     80 H80        30.7584   -3.5602   -1.0419 H         1 UNK         0.0731 
     81 H81        30.9134   -3.7345   -4.8051 H         1 UNK         0.1312 
     82 H82        31.0420    0.5345   -5.2457 H         1 UNK         0.1406 
     83 H83        30.5364   -1.2102   -1.3653 H         1 UNK         0.1631 
     84 H84        31.5265    1.7654   -2.8098 H         1 UNK         0.0717 
     85 H85        30.5353    1.1156   -1.5297 H         1 UNK         0.0717 
     86 H86        28.0424    0.1285   -2.5246 H         1 UNK         0.0934 
     87 H87        26.9179    1.4345   -2.7485 H         1 UNK         0.0934 
     88 H88        28.3738    0.1771   -5.1094 H         1 UNK         0.0739 
     89 H89        26.0362   -0.9830   -3.7843 H         1 UNK         0.3093 
     90 H90        25.1610   -2.9221   -6.3846 H         1 UNK         0.0818 
     91 H91        25.6123   -5.1417   -5.4828 H         1 UNK         0.0819 
     92 H92        27.0993   -4.4746   -6.1314 H         1 UNK         0.0819 
     93 H93        26.8458   -4.5231   -4.3972 H         1 UNK         0.0819 
     94 H94        24.6841   -3.5386   -3.6450 H         1 UNK         0.3041 
     95 H95        22.0087   -1.1176   -3.3553 H         1 UNK         0.0784 
     96 H96        21.2180   -3.1130   -4.6190 H         1 UNK         0.0793 
     97 H97        22.1694   -4.1708   -3.5833 H         1 UNK         0.0793 
     98 H98        20.8263   -3.2485   -2.9123 H         1 UNK         0.0793 
     99 H99        23.7334   -3.0549   -1.8453 H         1 UNK         0.3024 
    100 H100       24.0817   -0.8091    0.8178 H         1 UNK         0.1171 
    101 H101       23.0776   -2.5138    2.3313 H         1 UNK         0.0786 
    102 H102       21.8172   -1.6233    1.4954 H         1 UNK         0.0786 
    103 H103       22.2261   -3.2514    0.9729 H         1 UNK         0.0786 
    104 H104       24.6285   -3.6354    0.5302 H         1 UNK         0.2977 
    105 H105       25.0653    0.2443   -5.8038 H         1 UNK         0.3127 
    106 H106       24.8809    2.9132   -6.8976 H         1 UNK         0.0770 
    107 H107       23.4670    0.3097   -7.6942 H         1 UNK         0.0814 
    108 H108       23.0213    1.9238   -8.2313 H         1 UNK         0.0814 
    109 H109       22.8671    1.4929   -6.5341 H         1 UNK         0.0814 
    110 H110       25.9724    3.6912   -8.5825 H         1 UNK         0.2983 
    111 H111       27.4237    3.9784  -10.2350 H         1 UNK         0.0947 
    112 H112       27.5331    2.4669  -12.1649 H         1 UNK         0.0806 
    113 H113       25.8558    2.6694  -11.6852 H         1 UNK         0.0806 
    114 H114       26.7213    1.1864  -11.2838 H         1 UNK         0.0806 
    115 H115       28.4732    3.5326   -7.9062 H         1 UNK         0.3000 
    116 H116       30.1399    1.5319   -7.2548 H         1 UNK         0.0850 
    117 H117       31.3600    3.2084   -5.8672 H         1 UNK         0.0810 
    118 H118       29.6391    3.5323   -5.8284 H         1 UNK         0.0810 
    119 H119       30.6942    4.5224   -6.8281 H         1 UNK         0.0810 
    120 H120       30.8928    3.8971   -9.7267 H         1 UNK         0.3040 
    121 H121       33.6652    3.6186  -10.0279 H         1 UNK         0.0766 
    122 H122       32.3206    5.3622  -11.1749 H         1 UNK         0.0812 
    123 H123       31.5049    4.1353  -12.1467 H         1 UNK         0.0812 
    124 H124       33.2245    4.4340  -12.3583 H         1 UNK         0.0812 
    125 H125       31.1494    1.3000  -10.8535 H         1 UNK         0.3205 
    126 H126       32.5872   -0.3620  -12.6621 H         1 UNK         0.0754 
    127 H127       30.9278   -2.0888  -11.9397 H         1 UNK         0.0769 
    128 H128       30.1367   -0.5528  -12.2593 H         1 UNK         0.0769 
    129 H129       30.4276   -1.0660  -10.5985 H         1 UNK         0.0769 
    130 H130       32.9564    0.1000   -9.1861 H         1 UNK         0.2981 
    131 H131       34.7989   -2.2240   -8.9749 H         1 UNK         0.0541 
    132 H132       35.2260    0.8366  -10.1353 H         1 UNK         0.3459 
    133 H133       36.7811    1.1491   -9.4050 H         1 UNK         0.3459 
    134 H134       33.5116   -0.5508   -6.7642 H         1 UNK         0.0612 
    135 H135       34.6650   -1.8345   -6.5038 H         1 UNK         0.0612 
    136 H136       30.2243   -2.3093   -7.0525 H         1 UNK         0.0624 
    137 H137       31.1243   -0.8237   -7.2126 H         1 UNK         0.0624 
@<TRIPOS>BOND
     1    1    2 1    
     2    1   72 1    
     3    1   73 1    
     4    1   74 1    
     5    2    3 2    
     6    2    4 am   BACKBONE|DICT|INTERRES
     7    4    5 1    
     8    4   75 1    
     9    5    6 1    
    10    5   35 1    
    11    5   76 1    
    12    6    7 1    
    13    6   77 1    
    14    6   78 1    
    15    7    8 1    
    16    8    9 1    
    17    8   79 1    
    18    8   80 1    
    19    9   10 ar   
    20    9   14 ar   
    21   10   11 ar   
    22   10   81 1    
    23   11   12 ar   
    24   11   71 1    
    25   12   13 ar   
    26   12   82 1    
    27   13   14 ar   
    28   13   15 1    
    29   14   83 1    
    30   15   16 1    
    31   15   84 1    
    32   15   85 1    
    33   16   17 1    
    34   17   18 1    
    35   17   86 1    
    36   17   87 1    
    37   18   19 1    
    38   18   37 1    
    39   18   88 1    
    40   19   20 am   BACKBONE|DICT|INTERRES
    41   19   89 1    
    42   20   21 2    
    43   20   22 1    
    44   22   23 1    
    45   22   24 1    
    46   22   90 1    
    47   23   91 1    
    48   23   92 1    
    49   23   93 1    
    50   24   25 am   BACKBONE|DICT|INTERRES
    51   24   94 1    
    52   25   26 2    
    53   25   27 1    
    54   27   28 1    
    55   27   29 1    
    56   27   95 1    
    57   28   96 1    
    58   28   97 1    
    59   28   98 1    
    60   29   30 am   BACKBONE|DICT|INTERRES
    61   29   99 1    
    62   30   31 2    
    63   30   32 1    
    64   32   33 1    
    65   32   34 1    
    66   32  100 1    
    67   33  101 1    
    68   33  102 1    
    69   33  103 1    
    70   34   35 am   BACKBONE|DICT|INTERRES
    71   34  104 1    
    72   35   36 2    
    73   37   38 2    
    74   37   39 am   BACKBONE|DICT|INTERRES
    75   39   40 1    
    76   39  105 1    
    77   40   41 1    
    78   40   42 1    
    79   40  106 1    
    80   41  107 1    
    81   41  108 1    
    82   41  109 1    
    83   42   43 2    
    84   42   44 am   BACKBONE|DICT|INTERRES
    85   44   45 1    
    86   44  110 1    
    87   45   46 1    
    88   45   47 1    
    89   45  111 1    
    90   46  112 1    
    91   46  113 1    
    92   46  114 1    
    93   47   48 2    
    94   47   49 am   BACKBONE|DICT|INTERRES
    95   49   50 1    
    96   49  115 1    
    97   50   51 1    
    98   50   52 1    
    99   50  116 1    
   100   51  117 1    
   101   51  118 1    
   102   51  119 1    
   103   52   53 2    
   104   52   54 am   BACKBONE|DICT|INTERRES
   105   54   55 1    
   106   54  120 1    
   107   55   56 1    
   108   55   57 1    
   109   55  121 1    
   110   56  122 1    
   111   56  123 1    
   112   56  124 1    
   113   57   58 2    
   114   57   59 am   BACKBONE|DICT|INTERRES
   115   59   60 1    
   116   59  125 1    
   117   60   61 1    
   118   60   62 1    
   119   60  126 1    
   120   61  127 1    
   121   61  128 1    
   122   61  129 1    
   123   62   63 2    
   124   62   64 am   BACKBONE|DICT|INTERRES
   125   64   65 1    
   126   64  130 1    
   127   65   66 1    
   128   65   69 1    
   129   65  131 1    
   130   66   67 am   BACKBONE|DICT|INTERRES
   131   66   68 2    
   132   67  132 1    
   133   67  133 1    
   134   69   70 1    
   135   69  134 1    
   136   69  135 1    
   137   70   71 1    
   138   71  136 1    
   139   71  137 1    
@<TRIPOS>SUBSTRUCTURE
     1 UNK         1 GROUP             0       ****    0 ROOT    
