@<TRIPOS>MOLECULE
3R137
137   139    1
SMALL
USER_CHARGES


@<TRIPOS>ATOM
      1 CA         27.6519   -5.1522    1.4917 C.3       0 UNK        -0.2020 
      2 C          27.5409   -4.0671    0.4321 C.2       0 UNK         0.4855 
      3 O          27.3743   -4.3836   -0.7459 O.2       0 UNK        -0.5197 
      4 N          27.6356   -2.7945    0.8442 N.am      1 UNK        -0.4892 
      5 CA         27.5561   -1.5637    0.0372 C.3       1 UNK         0.0835 
      6 C6         28.6270   -1.4551   -1.0823 C.3       12 UNK        -0.0855 
      7 S7         30.3376   -1.4632   -0.4344 S.3       12 UNK        -0.2931 
      8 C8         30.9333   -3.1426   -0.8308 C.3       12 UNK         0.0378 
      9 C9         31.1375   -3.3440   -2.3252 C.ar      12 UNK        -0.0802 
     10 C10        32.3239   -2.9312   -2.9385 C.ar      12 UNK        -0.0944 
     11 C11        32.5071   -3.1038   -4.3138 C.ar      12 UNK        -0.0787 
     12 C12        31.4820   -3.6660   -5.0808 C.ar      12 UNK        -0.0862 
     13 C13        30.2891   -4.0813   -4.4801 C.ar      12 UNK        -0.0733 
     14 C14        30.1406   -3.9485   -3.0955 C.ar      12 UNK        -0.0832 
     15 C15        29.1629   -4.6503   -5.3408 C.3       12 UNK         0.0240 
     16 S16        27.4996   -4.0416   -4.8839 S.3       12 UNK        -0.2522 
     17 C17        27.7197   -2.2300   -4.9286 C.3       12 UNK        -0.0967 
     18 CA         27.0945   -1.5779   -6.1817 C.3       5 UNK         0.0660 
     19 N          25.6539   -1.8155   -6.2906 N.am      5 UNK        -0.4015 
     20 C          24.9177   -1.5533   -7.3792 C.2       4 UNK         0.4946 
     21 O          25.3820   -1.1207   -8.4342 O.2       4 UNK        -0.5353 
     22 CA         23.4002   -1.7716   -7.2545 C.3       4 UNK         0.0277 
     23 CB         23.0462   -3.2525   -7.4647 C.3       4 UNK        -0.1981 
     24 N          22.8688   -1.3139   -5.9673 N.am      4 UNK        -0.4209 
     25 C          22.8554   -0.0332   -5.5688 C.2       3 UNK         0.4942 
     26 O          23.2323    0.9040   -6.2695 O.2       3 UNK        -0.5208 
     27 CA         22.3910    0.2483   -4.1293 C.3       3 UNK         0.0250 
     28 CB         20.8649    0.4233   -4.0800 C.3       3 UNK        -0.1990 
     29 N          22.8020   -0.7751   -3.1612 N.am      3 UNK        -0.4232 
     30 C          24.0705   -1.1270   -2.9071 C.2       2 UNK         0.4993 
     31 O          25.0441   -0.6502   -3.4958 O.2       2 UNK        -0.5286 
     32 CA         24.2642   -2.2504   -1.8750 C.3       2 UNK         0.0209 
     33 CB         24.0174   -3.6194   -2.5315 C.3       2 UNK        -0.1931 
     34 N          25.5994   -2.2626   -1.2753 N.am      2 UNK        -0.4546 
     35 C          26.1342   -1.3055   -0.5075 C.2       1 UNK         0.5154 
     36 O          25.5414   -0.2732   -0.1886 O.2       1 UNK        -0.5181 
     37 C          27.4081   -0.0724   -6.2085 C.2       5 UNK         0.5014 
     38 O          28.3319    0.3351   -6.9113 O.2       5 UNK        -0.5248 
     39 N          26.6212    0.7247   -5.4708 N.am      6 UNK        -0.4434 
     40 CA         26.7127    2.1862   -5.4404 C.3       6 UNK         0.0363 
     41 CB         25.7760    2.7383   -4.3548 C.3       6 UNK        -0.1936 
     42 C          26.4163    2.8376   -6.8034 C.2       6 UNK         0.5081 
     43 O          27.0885    3.8028   -7.1660 O.2       6 UNK        -0.5248 
     44 N          25.4354    2.2939   -7.5386 N.am      7 UNK        -0.4718 
     45 CA         25.0938    2.7055   -8.9018 C.3       7 UNK         0.0273 
     46 CB         23.7435    2.0931   -9.3071 C.3       7 UNK        -0.1935 
     47 C          26.1840    2.3438   -9.9242 C.2       7 UNK         0.5018 
     48 O          26.4730    3.1585  -10.8017 O.2       7 UNK        -0.5186 
     49 N          26.7668    1.1418   -9.7971 N.am      8 UNK        -0.4240 
     50 CA         27.8793    0.6699  -10.6265 C.3       8 UNK         0.0235 
     51 CB         28.0947   -0.8363  -10.4035 C.3       8 UNK        -0.2000 
     52 C          29.1760    1.4570  -10.3703 C.2       8 UNK         0.4941 
     53 O          29.7949    1.9246  -11.3280 O.2       8 UNK        -0.5273 
     54 N          29.5340    1.6043   -9.0858 N.am      9 UNK        -0.4262 
     55 CA         30.6991    2.3168   -8.5529 C.3       9 UNK         0.0264 
     56 CB         30.5450    3.8371   -8.7898 C.3       9 UNK        -0.1955 
     57 C          32.0435    1.7438   -9.0532 C.2       9 UNK         0.5031 
     58 O          32.1168    0.5667   -9.4184 O.2       9 UNK        -0.5390 
     59 N          33.0887    2.5838   -9.0272 N.am      10 UNK        -0.4204 
     60 CA         34.4739    2.3629   -9.4656 C.3       10 UNK         0.0237 
     61 CB         34.5471    2.0479  -10.9734 C.3       10 UNK        -0.1985 
     62 C          35.2632    1.3305   -8.6409 C.2       10 UNK         0.4970 
     63 O          36.3411    1.6669   -8.1480 O.2       10 UNK        -0.4914 
     64 N          34.7293    0.1091   -8.5164 N.am      11 UNK        -0.4285 
     65 CA         35.3640   -1.0659   -7.8942 C.3       11 UNK         0.1007 
     66 C          36.6973   -1.4861   -8.5937 C.2       11 UNK         0.5703 
     67 N          37.5471   -2.2747   -7.9478 N.am      11 UNK        -0.7361 
     68 O          36.9476   -1.1565   -9.7525 O.2       11 UNK        -0.4986 
     69 C69        35.4587   -0.9324   -6.3433 C.3       12 UNK        -0.0947 
     70 S70        33.8147   -0.9896   -5.5534 S.3       12 UNK        -0.2240 
     71 C71        33.8227   -2.7115   -4.9667 C.3       12 UNK         0.0194 
     72 H72        28.4887   -5.8120    1.2644 H         1 UNK         0.0906 
     73 H73        27.8075   -4.7381    2.4877 H         1 UNK         0.0906 
     74 H74        26.7416   -5.7509    1.5111 H         1 UNK         0.0906 
     75 H75        27.7558   -2.6258    1.8338 H         1 UNK         0.3140 
     76 H76        27.7519   -0.7505    0.7386 H         1 UNK         0.1085 
     77 H77        28.5003   -0.5189   -1.6297 H         1 UNK         0.0836 
     78 H78        28.4951   -2.2416   -1.8222 H         1 UNK         0.0836 
     79 H79        31.8784   -3.3073   -0.3114 H         1 UNK         0.0731 
     80 H80        30.2430   -3.8865   -0.4345 H         1 UNK         0.0731 
     81 H81        33.1060   -2.4781   -2.3443 H         1 UNK         0.1312 
     82 H82        31.6162   -3.7795   -6.1481 H         1 UNK         0.1406 
     83 H83        29.2275   -4.2834   -2.6221 H         1 UNK         0.1631 
     84 H84        29.1736   -5.7378   -5.2601 H         1 UNK         0.0717 
     85 H85        29.3316   -4.4153   -6.3929 H         1 UNK         0.0717 
     86 H86        27.2799   -1.8224   -4.0176 H         1 UNK         0.0934 
     87 H87        28.7807   -1.9827   -4.8727 H         1 UNK         0.0934 
     88 H88        27.5668   -2.0219   -7.0609 H         1 UNK         0.0739 
     89 H89        25.1922   -2.1257   -5.4488 H         1 UNK         0.3093 
     90 H90        22.9175   -1.1895   -8.0427 H         1 UNK         0.0818 
     91 H91        21.9671   -3.4068   -7.4615 H         1 UNK         0.0819 
     92 H92        23.4193   -3.6083   -8.4262 H         1 UNK         0.0819 
     93 H93        23.4796   -3.8889   -6.6919 H         1 UNK         0.0819 
     94 H94        22.5266   -2.0191   -5.3314 H         1 UNK         0.3041 
     95 H95        22.8495    1.1890   -3.8186 H         1 UNK         0.0784 
     96 H96        20.5386    1.1951   -4.7789 H         1 UNK         0.0793 
     97 H97        20.3418   -0.4969   -4.3434 H         1 UNK         0.0793 
     98 H98        20.5316    0.7278   -3.0876 H         1 UNK         0.0793 
     99 H99        22.0600   -1.2270   -2.6457 H         1 UNK         0.3024 
    100 H100       23.5423   -2.1031   -1.0688 H         1 UNK         0.1171 
    101 H101       23.0150   -3.6837   -2.9564 H         1 UNK         0.0786 
    102 H102       24.1102   -4.4281   -1.8060 H         1 UNK         0.0786 
    103 H103       24.7280   -3.8133   -3.3362 H         1 UNK         0.0786 
    104 H104       26.1650   -3.0950   -1.4221 H         1 UNK         0.2977 
    105 H105       25.9209    0.2930   -4.8702 H         1 UNK         0.3127 
    106 H106       27.7385    2.4437   -5.1681 H         1 UNK         0.0770 
    107 H107       24.7304    2.5333   -4.5838 H         1 UNK         0.0814 
    108 H108       25.8828    3.8198   -4.2628 H         1 UNK         0.0814 
    109 H109       25.9969    2.3043   -3.3793 H         1 UNK         0.0814 
    110 H110       24.8639    1.5616   -7.1260 H         1 UNK         0.2983 
    111 H111       24.9871    3.7926   -8.9059 H         1 UNK         0.0947 
    112 H112       23.4635    2.3967  -10.3166 H         1 UNK         0.0806 
    113 H113       22.9458    2.4166   -8.6382 H         1 UNK         0.0806 
    114 H114       23.7723    1.0031   -9.2889 H         1 UNK         0.0806 
    115 H115       26.4195    0.5036   -9.0876 H         1 UNK         0.3000 
    116 H116       27.6021    0.8187  -11.6723 H         1 UNK         0.0850 
    117 H117       28.9150   -1.2083  -11.0188 H         1 UNK         0.0810 
    118 H118       27.2041   -1.4066  -10.6682 H         1 UNK         0.0810 
    119 H119       28.3373   -1.0620   -9.3646 H         1 UNK         0.0810 
    120 H120       28.9737    1.1303   -8.3771 H         1 UNK         0.3040 
    121 H121       30.6784    2.1437   -7.4759 H         1 UNK         0.0766 
    122 H122       31.2588    4.4134   -8.2008 H         1 UNK         0.0812 
    123 H123       29.5519    4.1793   -8.4972 H         1 UNK         0.0812 
    124 H124       30.6866    4.1002   -9.8390 H         1 UNK         0.0812 
    125 H125       32.9100    3.5106   -8.6659 H         1 UNK         0.3205 
    126 H126       34.9767    3.3202   -9.3177 H         1 UNK         0.0754 
    127 H127       35.5835    1.9629  -11.3029 H         1 UNK         0.0769 
    128 H128       34.0820    2.8363  -11.5652 H         1 UNK         0.0769 
    129 H129       34.0521    1.1085  -11.2216 H         1 UNK         0.0769 
    130 H130       33.8143   -0.0380   -8.9355 H         1 UNK         0.2981 
    131 H131       34.6905   -1.8956   -8.1109 H         1 UNK         0.0541 
    132 H132       38.3940   -2.5622   -8.4128 H         1 UNK         0.3459 
    133 H133       37.3614   -2.5868   -7.0082 H         1 UNK         0.3459 
    134 H134       35.9493    0.0001   -6.0621 H         1 UNK         0.0612 
    135 H135       36.0652   -1.7240   -5.9036 H         1 UNK         0.0612 
    136 H136       34.6414   -2.8461   -4.2579 H         1 UNK         0.0624 
    137 H137       34.0313   -3.3759   -5.8069 H         1 UNK         0.0624 
@<TRIPOS>BOND
     1    1    2 1    
     2    1   72 1    
     3    1   73 1    
     4    1   74 1    
     5    2    3 2    
     6    2    4 am   BACKBONE|DICT|INTERRES
     7    4    5 1    
     8    4   75 1    
     9    5    6 1    
    10    5   35 1    
    11    5   76 1    
    12    6    7 1    
    13    6   77 1    
    14    6   78 1    
    15    7    8 1    
    16    8    9 1    
    17    8   79 1    
    18    8   80 1    
    19    9   10 ar   
    20    9   14 ar   
    21   10   11 ar   
    22   10   81 1    
    23   11   12 ar   
    24   11   71 1    
    25   12   13 ar   
    26   12   82 1    
    27   13   14 ar   
    28   13   15 1    
    29   14   83 1    
    30   15   16 1    
    31   15   84 1    
    32   15   85 1    
    33   16   17 1    
    34   17   18 1    
    35   17   86 1    
    36   17   87 1    
    37   18   19 1    
    38   18   37 1    
    39   18   88 1    
    40   19   20 am   BACKBONE|DICT|INTERRES
    41   19   89 1    
    42   20   21 2    
    43   20   22 1    
    44   22   23 1    
    45   22   24 1    
    46   22   90 1    
    47   23   91 1    
    48   23   92 1    
    49   23   93 1    
    50   24   25 am   BACKBONE|DICT|INTERRES
    51   24   94 1    
    52   25   26 2    
    53   25   27 1    
    54   27   28 1    
    55   27   29 1    
    56   27   95 1    
    57   28   96 1    
    58   28   97 1    
    59   28   98 1    
    60   29   30 am   BACKBONE|DICT|INTERRES
    61   29   99 1    
    62   30   31 2    
    63   30   32 1    
    64   32   33 1    
    65   32   34 1    
    66   32  100 1    
    67   33  101 1    
    68   33  102 1    
    69   33  103 1    
    70   34   35 am   BACKBONE|DICT|INTERRES
    71   34  104 1    
    72   35   36 2    
    73   37   38 2    
    74   37   39 am   BACKBONE|DICT|INTERRES
    75   39   40 1    
    76   39  105 1    
    77   40   41 1    
    78   40   42 1    
    79   40  106 1    
    80   41  107 1    
    81   41  108 1    
    82   41  109 1    
    83   42   43 2    
    84   42   44 am   BACKBONE|DICT|INTERRES
    85   44   45 1    
    86   44  110 1    
    87   45   46 1    
    88   45   47 1    
    89   45  111 1    
    90   46  112 1    
    91   46  113 1    
    92   46  114 1    
    93   47   48 2    
    94   47   49 am   BACKBONE|DICT|INTERRES
    95   49   50 1    
    96   49  115 1    
    97   50   51 1    
    98   50   52 1    
    99   50  116 1    
   100   51  117 1    
   101   51  118 1    
   102   51  119 1    
   103   52   53 2    
   104   52   54 am   BACKBONE|DICT|INTERRES
   105   54   55 1    
   106   54  120 1    
   107   55   56 1    
   108   55   57 1    
   109   55  121 1    
   110   56  122 1    
   111   56  123 1    
   112   56  124 1    
   113   57   58 2    
   114   57   59 am   BACKBONE|DICT|INTERRES
   115   59   60 1    
   116   59  125 1    
   117   60   61 1    
   118   60   62 1    
   119   60  126 1    
   120   61  127 1    
   121   61  128 1    
   122   61  129 1    
   123   62   63 2    
   124   62   64 am   BACKBONE|DICT|INTERRES
   125   64   65 1    
   126   64  130 1    
   127   65   66 1    
   128   65   69 1    
   129   65  131 1    
   130   66   67 am   BACKBONE|DICT|INTERRES
   131   66   68 2    
   132   67  132 1    
   133   67  133 1    
   134   69   70 1    
   135   69  134 1    
   136   69  135 1    
   137   70   71 1    
   138   71  136 1    
   139   71  137 1    
@<TRIPOS>SUBSTRUCTURE
     1 UNK         1 GROUP             0       ****    0 ROOT    
