@<TRIPOS>MOLECULE
3R137
137   139    1
SMALL
USER_CHARGES


@<TRIPOS>ATOM
      1 CA         25.5869   -3.4878    2.1743 C.3       0 UNK        -0.2020 
      2 C          25.6545   -4.9213    1.6524 C.2       0 UNK         0.4855 
      3 O          24.7185   -5.6866    1.8762 O.2       0 UNK        -0.5197 
      4 N          26.7305   -5.3443    0.9732 N.am      1 UNK        -0.4892 
      5 CA         27.8836   -4.5441    0.5437 C.3       1 UNK         0.0835 
      6 C6         29.0422   -5.4613    0.0813 C.3       12 UNK        -0.0855 
      7 S7         30.6578   -4.6107    0.0757 S.3       12 UNK        -0.2931 
      8 C8         31.2635   -4.9562   -1.6072 C.3       12 UNK         0.0378 
      9 C9         30.7220   -3.9793   -2.6438 C.ar      12 UNK        -0.0802 
     10 C10        31.3548   -2.7454   -2.8326 C.ar      12 UNK        -0.0944 
     11 C11        30.9288   -1.8695   -3.8366 C.ar      12 UNK        -0.0787 
     12 C12        29.8467   -2.2355   -4.6425 C.ar      12 UNK        -0.0862 
     13 C13        29.2108   -3.4674   -4.4744 C.ar      12 UNK        -0.0733 
     14 C14        29.6439   -4.3325   -3.4640 C.ar      12 UNK        -0.0832 
     15 C15        28.1243   -3.8864   -5.4534 C.3       12 UNK         0.0240 
     16 S16        26.5654   -2.9746   -5.2111 S.3       12 UNK        -0.2522 
     17 C17        25.8852   -3.0317   -6.9149 C.3       12 UNK        -0.0967 
     18 CA         25.7392   -1.6449   -7.5955 C.3       5 UNK         0.0660 
     19 N          24.6921   -0.8510   -6.9501 N.am      5 UNK        -0.4015 
     20 C          24.2514    0.3537   -7.3410 C.2       4 UNK         0.4946 
     21 O          24.6187    0.9134   -8.3746 O.2       4 UNK        -0.5353 
     22 CA         23.2933    1.0875   -6.3789 C.3       4 UNK         0.0277 
     23 CB         21.8372    0.9161   -6.8396 C.3       4 UNK        -0.1981 
     24 N          23.4127    0.6740   -4.9705 N.am      4 UNK        -0.4209 
     25 C          24.5450    0.7118   -4.2517 C.2       3 UNK         0.4942 
     26 O          25.6135    1.1281   -4.7057 O.2       3 UNK        -0.5208 
     27 CA         24.5214    0.1211   -2.8337 C.3       3 UNK         0.0250 
     28 CB         23.4343   -0.9570   -2.6242 C.3       3 UNK        -0.1990 
     29 N          25.8473   -0.4413   -2.6017 N.am      3 UNK        -0.4232 
     30 C          26.4027   -0.7439   -1.4285 C.2       2 UNK         0.4993 
     31 O          25.8531   -0.5889   -0.3350 O.2       2 UNK        -0.5286 
     32 CA         27.8409   -1.2820   -1.4996 C.3       2 UNK         0.0209 
     33 CB         28.8561   -0.1513   -1.2656 C.3       2 UNK        -0.1931 
     34 N          28.0798   -2.3527   -0.5333 N.am      2 UNK        -0.4546 
     35 C          27.4829   -3.5511   -0.5659 C.2       1 UNK         0.5154 
     36 O          26.6704   -3.8971   -1.4271 O.2       1 UNK        -0.5181 
     37 C          27.0957   -0.9083   -7.7039 C.2       5 UNK         0.5014 
     38 O          27.8550   -1.1831   -8.6331 O.2       5 UNK        -0.5248 
     39 N          27.3741    0.0261   -6.7806 N.am      6 UNK        -0.4434 
     40 CA         28.6046    0.8158   -6.7353 C.3       6 UNK         0.0363 
     41 CB         28.7069    1.5124   -5.3711 C.3       6 UNK        -0.1936 
     42 C          28.7311    1.8235   -7.8869 C.2       6 UNK         0.5081 
     43 O          29.8535    2.2057   -8.2171 O.2       6 UNK        -0.5248 
     44 N          27.6058    2.2105   -8.5047 N.am      7 UNK        -0.4718 
     45 CA         27.5899    3.0247   -9.7215 C.3       7 UNK         0.0273 
     46 CB         26.1927    3.6331   -9.9192 C.3       7 UNK        -0.1935 
     47 C          28.0120    2.2143  -10.9590 C.2       7 UNK         0.5018 
     48 O          28.6846    2.7583  -11.8344 O.2       7 UNK        -0.5186 
     49 N          27.6297    0.9293  -10.9992 N.am      8 UNK        -0.4240 
     50 CA         27.9986   -0.0138  -12.0568 C.3       8 UNK         0.0235 
     51 CB         27.0028   -1.1855  -12.0786 C.3       8 UNK        -0.2000 
     52 C          29.4400   -0.5189  -11.8909 C.2       8 UNK         0.4941 
     53 O          30.1824   -0.5650  -12.8719 O.2       8 UNK        -0.5273 
     54 N          29.8158   -0.8668  -10.6515 N.am      9 UNK        -0.4262 
     55 CA         31.1613   -1.3151  -10.2782 C.3       9 UNK         0.0264 
     56 CB         31.0875   -2.0273   -8.9180 C.3       9 UNK        -0.1955 
     57 C          32.2108   -0.1857  -10.2508 C.2       9 UNK         0.5031 
     58 O          33.4054   -0.4839  -10.2432 O.2       9 UNK        -0.5390 
     59 N          31.7521    1.0747  -10.2281 N.am      10 UNK        -0.4204 
     60 CA         32.5171    2.3291  -10.2161 C.3       10 UNK         0.0237 
     61 CB         33.4339    2.4448  -11.4527 C.3       10 UNK        -0.1985 
     62 C          33.2623    2.6189   -8.8970 C.2       10 UNK         0.4970 
     63 O          34.0580    3.5589   -8.8542 O.2       10 UNK        -0.4914 
     64 N          32.9754    1.8488   -7.8406 N.am      11 UNK        -0.4285 
     65 CA         33.4387    2.0884   -6.4652 C.3       11 UNK         0.1007 
     66 C          32.6060    3.1472   -5.6862 C.2       11 UNK         0.5703 
     67 N          31.4895    3.6389   -6.2105 N.am      11 UNK        -0.7361 
     68 O          32.9985    3.5529   -4.5949 O.2       11 UNK        -0.4986 
     69 C69        33.6355    0.7667   -5.6716 C.3       12 UNK        -0.0947 
     70 S70        32.2497   -0.4162   -5.7926 S.3       12 UNK        -0.2240 
     71 C71        31.6609   -0.5514   -4.0722 C.3       12 UNK         0.0194 
     72 H72        26.4992   -3.2055    2.6979 H         1 UNK         0.0906 
     73 H73        25.4146   -2.7866    1.3583 H         1 UNK         0.0906 
     74 H74        24.7629   -3.3803    2.8794 H         1 UNK         0.0906 
     75 H75        26.7211   -6.2924    0.6253 H         1 UNK         0.3140 
     76 H76        28.2310   -3.9795    1.4111 H         1 UNK         0.1085 
     77 H77        29.1420   -6.3052    0.7662 H         1 UNK         0.0836 
     78 H78        28.8301   -5.9000   -0.8957 H         1 UNK         0.0836 
     79 H79        32.3530   -4.8967   -1.5974 H         1 UNK         0.0731 
     80 H80        31.0284   -5.9852   -1.8838 H         1 UNK         0.0731 
     81 H81        32.1984   -2.4803   -2.2099 H         1 UNK         0.1312 
     82 H82        29.5200   -1.5792   -5.4335 H         1 UNK         0.1406 
     83 H83        29.1655   -5.2945   -3.3406 H         1 UNK         0.1631 
     84 H84        27.9237   -4.9563   -5.3801 H         1 UNK         0.0717 
     85 H85        28.5020   -3.7144   -6.4627 H         1 UNK         0.0717 
     86 H86        26.4960   -3.6837   -7.5419 H         1 UNK         0.0934 
     87 H87        24.9121   -3.5236   -6.8705 H         1 UNK         0.0934 
     88 H88        25.4030   -1.8156   -8.6204 H         1 UNK         0.0739 
     89 H89        24.3337   -1.2249   -6.0844 H         1 UNK         0.3093 
     90 H90        23.5458    2.1488   -6.4279 H         1 UNK         0.0818 
     91 H91        21.1554    1.5147   -6.2352 H         1 UNK         0.0819 
     92 H92        21.7151    1.2385   -7.8749 H         1 UNK         0.0819 
     93 H93        21.5141   -0.1241   -6.7824 H         1 UNK         0.0819 
     94 H94        22.5777    0.3111   -4.5330 H         1 UNK         0.3041 
     95 H95        24.3587    0.9442   -2.1353 H         1 UNK         0.0784 
     96 H96        22.4312   -0.5400   -2.7181 H         1 UNK         0.0793 
     97 H97        23.5301   -1.7724   -3.3427 H         1 UNK         0.0793 
     98 H98        23.4964   -1.3928   -1.6268 H         1 UNK         0.0793 
     99 H99        26.4010   -0.5259   -3.4442 H         1 UNK         0.3024 
    100 H100       28.0084   -1.7018   -2.4937 H         1 UNK         0.1171 
    101 H101       28.7343    0.6425   -2.0036 H         1 UNK         0.0786 
    102 H102       29.8808   -0.5136   -1.3476 H         1 UNK         0.0786 
    103 H103       28.7367    0.2992   -0.2795 H         1 UNK         0.0786 
    104 H104       28.7431   -2.1548    0.2014 H         1 UNK         0.2977 
    105 H105       26.6794    0.2467   -6.0722 H         1 UNK         0.3127 
    106 H106       29.4463    0.1312   -6.8314 H         1 UNK         0.0770 
    107 H107       27.9657    2.3053   -5.2652 H         1 UNK         0.0814 
    108 H108       29.6883    1.9618   -5.2342 H         1 UNK         0.0814 
    109 H109       28.5633    0.8077   -4.5524 H         1 UNK         0.0814 
    110 H110       26.7172    1.8459   -8.1833 H         1 UNK         0.2983 
    111 H111       28.3034    3.8434   -9.6005 H         1 UNK         0.0947 
    112 H112       26.1727    4.2838  -10.7945 H         1 UNK         0.0806 
    113 H113       25.8971    4.2361   -9.0605 H         1 UNK         0.0806 
    114 H114       25.4324    2.8655  -10.0676 H         1 UNK         0.0806 
    115 H115       27.1053    0.5592  -10.2189 H         1 UNK         0.3000 
    116 H116       27.9337    0.5007  -13.0183 H         1 UNK         0.0850 
    117 H117       27.2449   -1.8856  -12.8794 H         1 UNK         0.0810 
    118 H118       25.9847   -0.8364  -12.2517 H         1 UNK         0.0810 
    119 H119       27.0098   -1.7468  -11.1438 H         1 UNK         0.0810 
    120 H120       29.1136   -0.8705   -9.9122 H         1 UNK         0.3040 
    121 H121       31.4955   -2.0420  -11.0215 H         1 UNK         0.0766 
    122 H122       32.0726   -2.3651   -8.5931 H         1 UNK         0.0812 
    123 H123       30.4426   -2.9049   -8.9652 H         1 UNK         0.0812 
    124 H124       30.6946   -1.3711   -8.1431 H         1 UNK         0.0812 
    125 H125       30.7499    1.1963  -10.1645 H         1 UNK         0.3205 
    126 H126       31.7668    3.1170  -10.2986 H         1 UNK         0.0754 
    127 H127       33.8601    3.4456  -11.5323 H         1 UNK         0.0769 
    128 H128       32.8821    2.2558  -12.3737 H         1 UNK         0.0769 
    129 H129       34.2666    1.7425  -11.4089 H         1 UNK         0.0769 
    130 H130       32.2843    1.1216   -7.9482 H         1 UNK         0.2981 
    131 H131       34.4319    2.5356   -6.5370 H         1 UNK         0.0541 
    132 H132       31.1153    3.2643   -7.0751 H         1 UNK         0.3459 
    133 H133       30.9775    4.3415   -5.7027 H         1 UNK         0.3459 
    134 H134       33.8713    0.9679   -4.6254 H         1 UNK         0.0612 
    135 H135       34.5131    0.2525   -6.0659 H         1 UNK         0.0612 
    136 H136       32.5108   -0.4694   -3.3935 H         1 UNK         0.0624 
    137 H137       30.9984    0.2844   -3.8465 H         1 UNK         0.0624 
@<TRIPOS>BOND
     1    1    2 1    
     2    1   72 1    
     3    1   73 1    
     4    1   74 1    
     5    2    3 2    
     6    2    4 am   BACKBONE|DICT|INTERRES
     7    4    5 1    
     8    4   75 1    
     9    5    6 1    
    10    5   35 1    
    11    5   76 1    
    12    6    7 1    
    13    6   77 1    
    14    6   78 1    
    15    7    8 1    
    16    8    9 1    
    17    8   79 1    
    18    8   80 1    
    19    9   10 ar   
    20    9   14 ar   
    21   10   11 ar   
    22   10   81 1    
    23   11   12 ar   
    24   11   71 1    
    25   12   13 ar   
    26   12   82 1    
    27   13   14 ar   
    28   13   15 1    
    29   14   83 1    
    30   15   16 1    
    31   15   84 1    
    32   15   85 1    
    33   16   17 1    
    34   17   18 1    
    35   17   86 1    
    36   17   87 1    
    37   18   19 1    
    38   18   37 1    
    39   18   88 1    
    40   19   20 am   BACKBONE|DICT|INTERRES
    41   19   89 1    
    42   20   21 2    
    43   20   22 1    
    44   22   23 1    
    45   22   24 1    
    46   22   90 1    
    47   23   91 1    
    48   23   92 1    
    49   23   93 1    
    50   24   25 am   BACKBONE|DICT|INTERRES
    51   24   94 1    
    52   25   26 2    
    53   25   27 1    
    54   27   28 1    
    55   27   29 1    
    56   27   95 1    
    57   28   96 1    
    58   28   97 1    
    59   28   98 1    
    60   29   30 am   BACKBONE|DICT|INTERRES
    61   29   99 1    
    62   30   31 2    
    63   30   32 1    
    64   32   33 1    
    65   32   34 1    
    66   32  100 1    
    67   33  101 1    
    68   33  102 1    
    69   33  103 1    
    70   34   35 am   BACKBONE|DICT|INTERRES
    71   34  104 1    
    72   35   36 2    
    73   37   38 2    
    74   37   39 am   BACKBONE|DICT|INTERRES
    75   39   40 1    
    76   39  105 1    
    77   40   41 1    
    78   40   42 1    
    79   40  106 1    
    80   41  107 1    
    81   41  108 1    
    82   41  109 1    
    83   42   43 2    
    84   42   44 am   BACKBONE|DICT|INTERRES
    85   44   45 1    
    86   44  110 1    
    87   45   46 1    
    88   45   47 1    
    89   45  111 1    
    90   46  112 1    
    91   46  113 1    
    92   46  114 1    
    93   47   48 2    
    94   47   49 am   BACKBONE|DICT|INTERRES
    95   49   50 1    
    96   49  115 1    
    97   50   51 1    
    98   50   52 1    
    99   50  116 1    
   100   51  117 1    
   101   51  118 1    
   102   51  119 1    
   103   52   53 2    
   104   52   54 am   BACKBONE|DICT|INTERRES
   105   54   55 1    
   106   54  120 1    
   107   55   56 1    
   108   55   57 1    
   109   55  121 1    
   110   56  122 1    
   111   56  123 1    
   112   56  124 1    
   113   57   58 2    
   114   57   59 am   BACKBONE|DICT|INTERRES
   115   59   60 1    
   116   59  125 1    
   117   60   61 1    
   118   60   62 1    
   119   60  126 1    
   120   61  127 1    
   121   61  128 1    
   122   61  129 1    
   123   62   63 2    
   124   62   64 am   BACKBONE|DICT|INTERRES
   125   64   65 1    
   126   64  130 1    
   127   65   66 1    
   128   65   69 1    
   129   65  131 1    
   130   66   67 am   BACKBONE|DICT|INTERRES
   131   66   68 2    
   132   67  132 1    
   133   67  133 1    
   134   69   70 1    
   135   69  134 1    
   136   69  135 1    
   137   70   71 1    
   138   71  136 1    
   139   71  137 1    
@<TRIPOS>SUBSTRUCTURE
     1 UNK         1 GROUP             0       ****    0 ROOT    
