@<TRIPOS>MOLECULE
3R137
137   139    1
SMALL
USER_CHARGES


@<TRIPOS>ATOM
      1 CA         26.5209   -7.7337   -3.9852 C.3       0 UNK        -0.2020 
      2 C          26.6229   -6.9516   -2.6842 C.2       0 UNK         0.4855 
      3 O          26.2600   -7.4680   -1.6271 O.2       0 UNK        -0.5197 
      4 N          27.1101   -5.7100   -2.7530 N.am      1 UNK        -0.4892 
      5 CA         27.2551   -4.7877   -1.6308 C.3       1 UNK         0.0835 
      6 C6         28.5396   -5.0844   -0.8108 C.3       12 UNK        -0.0855 
      7 S7         28.8474   -3.9281    0.5738 S.3       12 UNK        -0.2931 
      8 C8         30.5543   -3.3725    0.2541 C.3       12 UNK         0.0378 
      9 C9         30.6970   -2.5565   -1.0264 C.ar      12 UNK        -0.0802 
     10 C10        31.1668   -3.1658   -2.1931 C.ar      12 UNK        -0.0944 
     11 C11        31.3632   -2.4202   -3.3567 C.ar      12 UNK        -0.0787 
     12 C12        31.1021   -1.0467   -3.3479 C.ar      12 UNK        -0.0862 
     13 C13        30.6410   -0.4179   -2.1863 C.ar      12 UNK        -0.0733 
     14 C14        30.4261   -1.1833   -1.0323 C.ar      12 UNK        -0.0832 
     15 C15        30.4476    1.0950   -2.1498 C.3       12 UNK         0.0240 
     16 S16        28.9559    1.6497   -3.0367 S.3       12 UNK        -0.2522 
     17 C17        29.6158    2.0977   -4.6788 C.3       12 UNK        -0.0967 
     18 CA         28.6751    1.7783   -5.8679 C.3       5 UNK         0.0660 
     19 N          28.2258    0.3846   -5.9058 N.am      5 UNK        -0.4015 
     20 C          27.7396   -0.2057   -7.0072 C.2       4 UNK         0.4946 
     21 O          27.6124    0.3709   -8.0888 O.2       4 UNK        -0.5353 
     22 CA         27.2978   -1.6707   -6.8706 C.3       4 UNK         0.0277 
     23 CB         28.4990   -2.5878   -6.5829 C.3       4 UNK        -0.1981 
     24 N          26.2847   -1.8457   -5.8294 N.am      4 UNK        -0.4209 
     25 C          25.0463   -1.3269   -5.8759 C.2       3 UNK         0.4942 
     26 O          24.6049   -0.6944   -6.8332 O.2       3 UNK        -0.5208 
     27 CA         24.1516   -1.5083   -4.6340 C.3       3 UNK         0.0250 
     28 CB         23.2946   -2.7766   -4.7724 C.3       3 UNK        -0.1990 
     29 N          24.8989   -1.5657   -3.3761 N.am      3 UNK        -0.4232 
     30 C          25.7566   -0.6310   -2.9429 C.2       2 UNK         0.4993 
     31 O          25.9145    0.4527   -3.5020 O.2       2 UNK        -0.5286 
     32 CA         26.6302   -0.9803   -1.7260 C.3       2 UNK         0.0209 
     33 CB         26.1639   -0.2089   -0.4820 C.3       2 UNK        -0.1931 
     34 N          26.7142   -2.4105   -1.4096 N.am      2 UNK        -0.4546 
     35 C          27.1966   -3.3660   -2.2177 C.2       1 UNK         0.5154 
     36 O          27.5441   -3.1678   -3.3874 O.2       1 UNK        -0.5181 
     37 C          27.5128    2.7827   -6.0127 C.2       5 UNK         0.5014 
     38 O          27.7009    3.8080   -6.6686 O.2       5 UNK        -0.5248 
     39 N          26.3238    2.4616   -5.4777 N.am      6 UNK        -0.4434 
     40 CA         25.0970    3.2489   -5.6575 C.3       6 UNK         0.0363 
     41 CB         23.9810    2.6899   -4.7626 C.3       6 UNK        -0.1936 
     42 C          24.6236    3.3209   -7.1217 C.2       6 UNK         0.5081 
     43 O          24.0985    4.3549   -7.5345 O.2       6 UNK        -0.5248 
     44 N          24.8473    2.2457   -7.8902 N.am      7 UNK        -0.4718 
     45 CA         24.5940    2.1800   -9.3334 C.3       7 UNK         0.0273 
     46 CB         24.3566    0.7129   -9.7303 C.3       7 UNK        -0.1935 
     47 C          25.7269    2.7912  -10.1822 C.2       7 UNK         0.5018 
     48 O          25.6118    2.7900  -11.4086 O.2       7 UNK        -0.5186 
     49 N          26.7980    3.2777   -9.5344 N.am      8 UNK        -0.4240 
     50 CA         28.0339    3.8102  -10.1203 C.3       8 UNK         0.0235 
     51 CB         27.7617    5.0890  -10.9415 C.3       8 UNK        -0.2000 
     52 C          28.8432    2.7520  -10.8971 C.2       8 UNK         0.4941 
     53 O          29.5603    3.0983  -11.8374 O.2       8 UNK        -0.5273 
     54 N          28.7439    1.4869  -10.4707 N.am      9 UNK        -0.4262 
     55 CA         29.4835    0.3420  -10.9976 C.3       9 UNK         0.0264 
     56 CB         28.4783   -0.6795  -11.5627 C.3       9 UNK        -0.1955 
     57 C          30.3482   -0.2375   -9.8671 C.2       9 UNK         0.5031 
     58 O          30.2969   -1.4396   -9.6002 O.2       9 UNK        -0.5390 
     59 N          31.0888    0.6488   -9.1854 N.am      10 UNK        -0.4204 
     60 CA         31.9060    0.3446   -8.0113 C.3       10 UNK         0.0237 
     61 CB         32.4738    1.6518   -7.4344 C.3       10 UNK        -0.1985 
     62 C          33.0395   -0.6485   -8.3171 C.2       10 UNK         0.4970 
     63 O          33.6624   -0.5730   -9.3790 O.2       10 UNK        -0.4914 
     64 N          33.2820   -1.5439   -7.3585 N.am      11 UNK        -0.4285 
     65 CA         34.3419   -2.5562   -7.3696 C.3       11 UNK         0.1007 
     66 C          35.7662   -1.9573   -7.1910 C.2       11 UNK         0.5703 
     67 N          36.7969   -2.6883   -7.5945 N.am      11 UNK        -0.7361 
     68 O          35.9502   -0.8556   -6.6754 O.2       11 UNK        -0.4986 
     69 C69        34.0309   -3.6815   -6.3437 C.3       12 UNK        -0.0947 
     70 S70        33.7056   -3.0732   -4.6505 S.3       12 UNK        -0.2240 
     71 C71        31.8860   -3.0986   -4.6116 C.3       12 UNK         0.0194 
     72 H72        27.1145   -8.6454   -3.9222 H         1 UNK         0.0906 
     73 H73        25.4850   -8.0138   -4.1747 H         1 UNK         0.0906 
     74 H74        26.8773   -7.1557   -4.8378 H         1 UNK         0.0906 
     75 H75        27.3634   -5.2947   -3.6426 H         1 UNK         0.3140 
     76 H76        26.3885   -4.9059   -0.9760 H         1 UNK         0.1085 
     77 H77        29.4031   -5.1168   -1.4732 H         1 UNK         0.0836 
     78 H78        28.4701   -6.0859   -0.3836 H         1 UNK         0.0836 
     79 H79        31.2130   -4.2421    0.2272 H         1 UNK         0.0731 
     80 H80        30.8883   -2.7728    1.1021 H         1 UNK         0.0731 
     81 H81        31.4020   -4.2211   -2.1944 H         1 UNK         0.1312 
     82 H82        31.2856   -0.4659   -4.2393 H         1 UNK         0.1406 
     83 H83        30.0800   -0.7064   -0.1251 H         1 UNK         0.1631 
     84 H84        31.3313    1.5913   -2.5533 H         1 UNK         0.0717 
     85 H85        30.3671    1.4343   -1.1160 H         1 UNK         0.0717 
     86 H86        29.8714    3.1593   -4.6682 H         1 UNK         0.0934 
     87 H87        30.5629    1.5829   -4.8349 H         1 UNK         0.0934 
     88 H88        29.2798    1.9211   -6.7665 H         1 UNK         0.0739 
     89 H89        28.2423   -0.1200   -5.0311 H         1 UNK         0.3093 
     90 H90        26.8590   -1.9729   -7.8240 H         1 UNK         0.0818 
     91 H91        29.2742   -2.4681   -7.3404 H         1 UNK         0.0819 
     92 H92        28.9522   -2.3762   -5.6139 H         1 UNK         0.0819 
     93 H93        28.2036   -3.6370   -6.5871 H         1 UNK         0.0819 
     94 H94        26.5782   -2.3348   -4.9892 H         1 UNK         0.3041 
     95 H95        23.4835   -0.6473   -4.5795 H         1 UNK         0.0784 
     96 H96        22.7091   -2.7520   -5.6928 H         1 UNK         0.0793 
     97 H97        23.9080   -3.6782   -4.8003 H         1 UNK         0.0793 
     98 H98        22.5903   -2.8731   -3.9458 H         1 UNK         0.0793 
     99 H99        24.8323   -2.4218   -2.8464 H         1 UNK         0.3024 
    100 H100       27.6426   -0.6568   -1.9694 H         1 UNK         0.1171 
    101 H101       26.8439   -0.3608    0.3565 H         1 UNK         0.0786 
    102 H102       26.1323    0.8639   -0.6791 H         1 UNK         0.0786 
    103 H103       25.1649   -0.5139   -0.1683 H         1 UNK         0.0786 
    104 H104       26.4686   -2.6690   -0.4642 H         1 UNK         0.2977 
    105 H105       26.2518    1.6352   -4.8845 H         1 UNK         0.3127 
    106 H106       25.3122    4.2690   -5.3325 H         1 UNK         0.0770 
    107 H107       23.7256    1.6664   -5.0359 H         1 UNK         0.0814 
    108 H108       23.0730    3.2879   -4.8502 H         1 UNK         0.0814 
    109 H109       24.2730    2.6951   -3.7123 H         1 UNK         0.0814 
    110 H110       25.2487    1.4152   -7.4694 H         1 UNK         0.2983 
    111 H111       23.6859    2.7431   -9.5597 H         1 UNK         0.0947 
    112 H112       24.1262    0.6217  -10.7925 H         1 UNK         0.0806 
    113 H113       23.5171    0.2855   -9.1819 H         1 UNK         0.0806 
    114 H114       25.2343    0.0962   -9.5321 H         1 UNK         0.0806 
    115 H115       26.7899    3.2386   -8.5216 H         1 UNK         0.3000 
    116 H116       28.6612    4.0971   -9.2751 H         1 UNK         0.0850 
    117 H117       28.6951    5.5701  -11.2361 H         1 UNK         0.0810 
    118 H118       27.1922    5.8172  -10.3641 H         1 UNK         0.0810 
    119 H119       27.2065    4.8754  -11.8552 H         1 UNK         0.0810 
    120 H120       28.1737    1.2809   -9.6510 H         1 UNK         0.3040 
    121 H121       30.1587    0.6446  -11.8005 H         1 UNK         0.0766 
    122 H122       27.8738   -0.2407  -12.3566 H         1 UNK         0.0812 
    123 H123       27.8004   -1.0439  -10.7893 H         1 UNK         0.0812 
    124 H124       28.9923   -1.5440  -11.9844 H         1 UNK         0.0812 
    125 H125       31.0927    1.6060   -9.5048 H         1 UNK         0.3205 
    126 H126       31.2406   -0.1000   -7.2676 H         1 UNK         0.0754 
    127 H127       33.0463    1.4615   -6.5253 H         1 UNK         0.0769 
    128 H128       31.6830    2.3559   -7.1763 H         1 UNK         0.0769 
    129 H129       33.1430    2.1449   -8.1410 H         1 UNK         0.0769 
    130 H130       32.7691   -1.4851   -6.4935 H         1 UNK         0.2981 
    131 H131       34.3261   -3.0117   -8.3618 H         1 UNK         0.0541 
    132 H132       36.6626   -3.5959   -8.0124 H         1 UNK         0.3459 
    133 H133       37.7296   -2.3232   -7.4801 H         1 UNK         0.3459 
    134 H134       34.8502   -4.4011   -6.2986 H         1 UNK         0.0612 
    135 H135       33.1659   -4.2531   -6.6835 H         1 UNK         0.0612 
    136 H136       31.4837   -2.6031   -5.4952 H         1 UNK         0.0624 
    137 H137       31.5383   -4.1321   -4.6550 H         1 UNK         0.0624 
@<TRIPOS>BOND
     1    1    2 1    
     2    1   72 1    
     3    1   73 1    
     4    1   74 1    
     5    2    3 2    
     6    2    4 am   BACKBONE|DICT|INTERRES
     7    4    5 1    
     8    4   75 1    
     9    5    6 1    
    10    5   35 1    
    11    5   76 1    
    12    6    7 1    
    13    6   77 1    
    14    6   78 1    
    15    7    8 1    
    16    8    9 1    
    17    8   79 1    
    18    8   80 1    
    19    9   10 ar   
    20    9   14 ar   
    21   10   11 ar   
    22   10   81 1    
    23   11   12 ar   
    24   11   71 1    
    25   12   13 ar   
    26   12   82 1    
    27   13   14 ar   
    28   13   15 1    
    29   14   83 1    
    30   15   16 1    
    31   15   84 1    
    32   15   85 1    
    33   16   17 1    
    34   17   18 1    
    35   17   86 1    
    36   17   87 1    
    37   18   19 1    
    38   18   37 1    
    39   18   88 1    
    40   19   20 am   BACKBONE|DICT|INTERRES
    41   19   89 1    
    42   20   21 2    
    43   20   22 1    
    44   22   23 1    
    45   22   24 1    
    46   22   90 1    
    47   23   91 1    
    48   23   92 1    
    49   23   93 1    
    50   24   25 am   BACKBONE|DICT|INTERRES
    51   24   94 1    
    52   25   26 2    
    53   25   27 1    
    54   27   28 1    
    55   27   29 1    
    56   27   95 1    
    57   28   96 1    
    58   28   97 1    
    59   28   98 1    
    60   29   30 am   BACKBONE|DICT|INTERRES
    61   29   99 1    
    62   30   31 2    
    63   30   32 1    
    64   32   33 1    
    65   32   34 1    
    66   32  100 1    
    67   33  101 1    
    68   33  102 1    
    69   33  103 1    
    70   34   35 am   BACKBONE|DICT|INTERRES
    71   34  104 1    
    72   35   36 2    
    73   37   38 2    
    74   37   39 am   BACKBONE|DICT|INTERRES
    75   39   40 1    
    76   39  105 1    
    77   40   41 1    
    78   40   42 1    
    79   40  106 1    
    80   41  107 1    
    81   41  108 1    
    82   41  109 1    
    83   42   43 2    
    84   42   44 am   BACKBONE|DICT|INTERRES
    85   44   45 1    
    86   44  110 1    
    87   45   46 1    
    88   45   47 1    
    89   45  111 1    
    90   46  112 1    
    91   46  113 1    
    92   46  114 1    
    93   47   48 2    
    94   47   49 am   BACKBONE|DICT|INTERRES
    95   49   50 1    
    96   49  115 1    
    97   50   51 1    
    98   50   52 1    
    99   50  116 1    
   100   51  117 1    
   101   51  118 1    
   102   51  119 1    
   103   52   53 2    
   104   52   54 am   BACKBONE|DICT|INTERRES
   105   54   55 1    
   106   54  120 1    
   107   55   56 1    
   108   55   57 1    
   109   55  121 1    
   110   56  122 1    
   111   56  123 1    
   112   56  124 1    
   113   57   58 2    
   114   57   59 am   BACKBONE|DICT|INTERRES
   115   59   60 1    
   116   59  125 1    
   117   60   61 1    
   118   60   62 1    
   119   60  126 1    
   120   61  127 1    
   121   61  128 1    
   122   61  129 1    
   123   62   63 2    
   124   62   64 am   BACKBONE|DICT|INTERRES
   125   64   65 1    
   126   64  130 1    
   127   65   66 1    
   128   65   69 1    
   129   65  131 1    
   130   66   67 am   BACKBONE|DICT|INTERRES
   131   66   68 2    
   132   67  132 1    
   133   67  133 1    
   134   69   70 1    
   135   69  134 1    
   136   69  135 1    
   137   70   71 1    
   138   71  136 1    
   139   71  137 1    
@<TRIPOS>SUBSTRUCTURE
     1 UNK         1 GROUP             0       ****    0 ROOT    
