@<TRIPOS>MOLECULE
3R137
137   139    1
SMALL
USER_CHARGES


@<TRIPOS>ATOM
      1 CA         30.4851   -3.4075   -1.1194 C.3       0 UNK        -0.2020 
      2 C          29.5252   -2.2589   -0.8570 C.2       0 UNK         0.4855 
      3 O          29.0901   -2.0758    0.2798 O.2       0 UNK        -0.5197 
      4 N          29.1721   -1.4956   -1.9011 N.am      1 UNK        -0.4892 
      5 CA         28.2297   -0.3658   -1.8267 C.3       1 UNK         0.0835 
      6 C6         28.4406    0.6516   -2.9755 C.3       12 UNK        -0.0855 
      7 S7         30.0926    1.4295   -2.8713 S.3       12 UNK        -0.2931 
      8 C8         30.8554    1.0204   -4.4737 C.3       12 UNK         0.0378 
      9 C9         31.0184   -0.4788   -4.6754 C.ar      12 UNK        -0.0802 
     10 C10        32.0109   -1.1890   -3.9958 C.ar      12 UNK        -0.0944 
     11 C11        32.1726   -2.5622   -4.2104 C.ar      12 UNK        -0.0787 
     12 C12        31.3048   -3.2316   -5.0804 C.ar      12 UNK        -0.0862 
     13 C13        30.3151   -2.5280   -5.7727 C.ar      12 UNK        -0.0733 
     14 C14        30.1900   -1.1514   -5.5737 C.ar      12 UNK        -0.0832 
     15 C15        29.4220   -3.2406   -6.7790 C.3       12 UNK         0.0240 
     16 S16        28.0650   -4.1712   -5.9944 S.3       12 UNK        -0.2522 
     17 C17        26.9802   -2.8563   -5.3463 C.3       12 UNK        -0.0967 
     18 CA         26.1214   -2.1653   -6.4485 C.3       5 UNK         0.0660 
     19 N          24.6760   -2.3441   -6.2599 N.am      5 UNK        -0.4015 
     20 C          23.7538   -1.9919   -7.1730 C.2       4 UNK         0.4946 
     21 O          24.0365   -1.5662   -8.2939 O.2       4 UNK        -0.5353 
     22 CA         22.2674   -2.0819   -6.7772 C.3       4 UNK         0.0277 
     23 CB         21.6480   -3.3819   -7.3149 C.3       4 UNK        -0.1981 
     24 N          22.0112   -1.9857   -5.3378 N.am      4 UNK        -0.4209 
     25 C          22.3708   -0.9699   -4.5401 C.2       3 UNK         0.4942 
     26 O          22.9561    0.0375   -4.9351 O.2       3 UNK        -0.5208 
     27 CA         22.0897   -1.1292   -3.0353 C.3       3 UNK         0.0250 
     28 CB         20.9464   -2.1206   -2.7205 C.3       3 UNK        -0.1990 
     29 N          23.2948   -1.4956   -2.2792 N.am      3 UNK        -0.4232 
     30 C          24.1335   -2.5129   -2.5266 C.2       2 UNK         0.4993 
     31 O          24.0672   -3.2418   -3.5193 O.2       2 UNK        -0.5286 
     32 CA         25.2255   -2.7717   -1.4784 C.3       2 UNK         0.0209 
     33 CB         25.4834   -4.2786   -1.2949 C.3       2 UNK        -0.1931 
     34 N          26.4916   -2.1217   -1.8115 N.am      2 UNK        -0.4546 
     35 C          26.7523   -0.8119   -1.6989 C.2       1 UNK         0.5154 
     36 O          25.8871    0.0280   -1.4477 O.2       1 UNK        -0.5181 
     37 C          26.5080   -0.6782   -6.5910 C.2       5 UNK         0.5014 
     38 O          27.4272   -0.3786   -7.3489 O.2       5 UNK        -0.5248 
     39 N          25.7992    0.2331   -5.9028 N.am      6 UNK        -0.4434 
     40 CA         26.0945    1.6729   -5.8585 C.3       6 UNK         0.0363 
     41 CB         25.2510    2.3336   -4.7556 C.3       6 UNK        -0.1936 
     42 C          25.9330    2.4188   -7.1995 C.2       6 UNK         0.5081 
     43 O          26.2785    3.5986   -7.2731 O.2       6 UNK        -0.5248 
     44 N          25.4417    1.7327   -8.2414 N.am      7 UNK        -0.4718 
     45 CA         25.5114    2.1782   -9.6337 C.3       7 UNK         0.0273 
     46 CB         24.6240    1.2676  -10.4969 C.3       7 UNK        -0.1935 
     47 C          26.9547    2.2047  -10.1792 C.2       7 UNK         0.5018 
     48 O          27.2321    2.9881  -11.0886 O.2       7 UNK        -0.5186 
     49 N          27.8440    1.3707   -9.6195 N.am      8 UNK        -0.4240 
     50 CA         29.2812    1.3861   -9.8823 C.3       8 UNK         0.0235 
     51 CB         29.8236   -0.0508   -9.8078 C.3       8 UNK        -0.2000 
     52 C          29.9763    2.2737   -8.8402 C.2       8 UNK         0.4941 
     53 O          29.5728    2.2847   -7.6757 O.2       8 UNK        -0.5273 
     54 N          31.0270    2.9838   -9.2682 N.am      9 UNK        -0.4262 
     55 CA         31.8084    3.8891   -8.4178 C.3       9 UNK         0.0264 
     56 CB         32.5349    4.9088   -9.3113 C.3       9 UNK        -0.1955 
     57 C          32.8167    3.1691   -7.5020 C.2       9 UNK         0.5031 
     58 O          33.2833    3.7738   -6.5354 O.2       9 UNK        -0.5390 
     59 N          33.1549    1.9164   -7.8241 N.am      10 UNK        -0.4204 
     60 CA         34.1250    1.0779   -7.1268 C.3       10 UNK         0.0237 
     61 CB         35.5560    1.4741   -7.5443 C.3       10 UNK        -0.1985 
     62 C          33.8283   -0.3907   -7.4537 C.2       10 UNK         0.4970 
     63 O          32.9663   -0.6680   -8.2921 O.2       10 UNK        -0.4914 
     64 N          34.5559   -1.2976   -6.7919 N.am      11 UNK        -0.4285 
     65 CA         34.3825   -2.7559   -6.8966 C.3       11 UNK         0.1007 
     66 C          34.7650   -3.3834   -8.2695 C.2       11 UNK         0.5703 
     67 N          35.4603   -2.6787   -9.1544 N.am      11 UNK        -0.7361 
     68 O          34.4230   -4.5334   -8.5348 O.2       11 UNK        -0.4986 
     69 C69        35.0748   -3.5248   -5.7334 C.3       12 UNK        -0.0947 
     70 S70        34.9334   -2.7533   -4.0824 S.3       12 UNK        -0.2240 
     71 C71        33.2976   -3.3144   -3.5144 C.3       12 UNK         0.0194 
     72 H72        30.1627   -4.2985   -0.5811 H         1 UNK         0.0906 
     73 H73        30.5338   -3.6593   -2.1778 H         1 UNK         0.0906 
     74 H74        31.4844   -3.1453   -0.7743 H         1 UNK         0.0906 
     75 H75        29.6047   -1.6494   -2.8024 H         1 UNK         0.3140 
     76 H76        28.4375    0.1661   -0.8950 H         1 UNK         0.1085 
     77 H77        27.7047    1.4557   -2.9163 H         1 UNK         0.0836 
     78 H78        28.2943    0.1807   -3.9475 H         1 UNK         0.0836 
     79 H79        31.8331    1.5007   -4.5340 H         1 UNK         0.0731 
     80 H80        30.2548    1.4577   -5.2720 H         1 UNK         0.0731 
     81 H81        32.6721   -0.6689   -3.3159 H         1 UNK         0.1312 
     82 H82        31.4201   -4.2939   -5.2479 H         1 UNK         0.1406 
     83 H83        29.4574   -0.5886   -6.1285 H         1 UNK         0.1631 
     84 H84        30.0279   -3.9375   -7.3599 H         1 UNK         0.0717 
     85 H85        29.0104   -2.5348   -7.5010 H         1 UNK         0.0717 
     86 H86        26.3441   -3.3351   -4.6040 H         1 UNK         0.0934 
     87 H87        27.5884   -2.1545   -4.7730 H         1 UNK         0.0934 
     88 H88        26.3528   -2.6250   -7.4121 H         1 UNK         0.0739 
     89 H89        24.3679   -2.6966   -5.3563 H         1 UNK         0.3093 
     90 H90        21.7602   -1.2390   -7.2511 H         1 UNK         0.0818 
     91 H91        21.7983   -3.4697   -8.3921 H         1 UNK         0.0819 
     92 H92        22.0934   -4.2630   -6.8510 H         1 UNK         0.0819 
     93 H93        20.5729   -3.4141   -7.1373 H         1 UNK         0.0819 
     94 H94        21.5823   -2.7899   -4.9030 H         1 UNK         0.3041 
     95 H95        21.7817   -0.1451   -2.6783 H         1 UNK         0.0784 
     96 H96        20.0425   -1.8728   -3.2790 H         1 UNK         0.0793 
     97 H97        21.2126   -3.1521   -2.9548 H         1 UNK         0.0793 
     98 H98        20.6844   -2.0862   -1.6628 H         1 UNK         0.0793 
     99 H99        23.5087   -0.8966   -1.4925 H         1 UNK         0.3024 
    100 H100       24.8785   -2.3790   -0.5195 H         1 UNK         0.1171 
    101 H101       26.1840   -4.4648   -0.4806 H         1 UNK         0.0786 
    102 H102       24.5594   -4.8058   -1.0529 H         1 UNK         0.0786 
    103 H103       25.8908   -4.7349   -2.1983 H         1 UNK         0.0786 
    104 H104       27.2680   -2.7310   -2.0218 H         1 UNK         0.2977 
    105 H105       24.9723   -0.0623   -5.3934 H         1 UNK         0.3127 
    106 H106       27.1461    1.7740   -5.5814 H         1 UNK         0.0770 
    107 H107       24.1936    2.3588   -5.0203 H         1 UNK         0.0814 
    108 H108       25.5663    3.3645   -4.5900 H         1 UNK         0.0814 
    109 H109       25.3471    1.8088   -3.8048 H         1 UNK         0.0814 
    110 H110       25.1671    0.7714   -8.0886 H         1 UNK         0.2983 
    111 H111       25.1195    3.1963   -9.6875 H         1 UNK         0.0947 
    112 H112       24.9616    0.2305  -10.4676 H         1 UNK         0.0806 
    113 H113       24.6351    1.5862  -11.5402 H         1 UNK         0.0806 
    114 H114       23.5868    1.2905  -10.1619 H         1 UNK         0.0806 
    115 H115       27.5569    0.8067   -8.8221 H         1 UNK         0.3000 
    116 H116       29.4713    1.7790  -10.8835 H         1 UNK         0.0850 
    117 H117       30.8791   -0.0850  -10.0797 H         1 UNK         0.0810 
    118 H118       29.2911   -0.7137  -10.4899 H         1 UNK         0.0810 
    119 H119       29.7360   -0.4646   -8.8023 H         1 UNK         0.0810 
    120 H120       31.3031    2.9200  -10.2381 H         1 UNK         0.3040 
    121 H121       31.1197    4.4376   -7.7710 H         1 UNK         0.0766 
    122 H122       31.8304    5.4830   -9.9134 H         1 UNK         0.0812 
    123 H123       33.2406    4.4243   -9.9875 H         1 UNK         0.0812 
    124 H124       33.0994    5.6227   -8.7096 H         1 UNK         0.0812 
    125 H125       32.6750    1.4472   -8.5822 H         1 UNK         0.3205 
    126 H126       34.0031    1.2119   -6.0498 H         1 UNK         0.0754 
    127 H127       36.3051    0.8784   -7.0216 H         1 UNK         0.0769 
    128 H128       35.7633    2.5185   -7.3104 H         1 UNK         0.0769 
    129 H129       35.7144    1.3359   -8.6146 H         1 UNK         0.0769 
    130 H130       35.2419   -0.9894   -6.1193 H         1 UNK         0.2981 
    131 H131       33.3119   -2.9333   -6.8077 H         1 UNK         0.0541 
    132 H132       35.6991   -3.0956  -10.0402 H         1 UNK         0.3459 
    133 H133       35.7400   -1.7339   -8.9476 H         1 UNK         0.3459 
    134 H134       34.6924   -4.5455   -5.6753 H         1 UNK         0.0612 
    135 H135       36.1433   -3.6184   -5.9366 H         1 UNK         0.0612 
    136 H136       33.2074   -4.3918   -3.6610 H         1 UNK         0.0624 
    137 H137       33.2302   -3.1418   -2.4403 H         1 UNK         0.0624 
@<TRIPOS>BOND
     1    1    2 1    
     2    1   72 1    
     3    1   73 1    
     4    1   74 1    
     5    2    3 2    
     6    2    4 am   BACKBONE|DICT|INTERRES
     7    4    5 1    
     8    4   75 1    
     9    5    6 1    
    10    5   35 1    
    11    5   76 1    
    12    6    7 1    
    13    6   77 1    
    14    6   78 1    
    15    7    8 1    
    16    8    9 1    
    17    8   79 1    
    18    8   80 1    
    19    9   10 ar   
    20    9   14 ar   
    21   10   11 ar   
    22   10   81 1    
    23   11   12 ar   
    24   11   71 1    
    25   12   13 ar   
    26   12   82 1    
    27   13   14 ar   
    28   13   15 1    
    29   14   83 1    
    30   15   16 1    
    31   15   84 1    
    32   15   85 1    
    33   16   17 1    
    34   17   18 1    
    35   17   86 1    
    36   17   87 1    
    37   18   19 1    
    38   18   37 1    
    39   18   88 1    
    40   19   20 am   BACKBONE|DICT|INTERRES
    41   19   89 1    
    42   20   21 2    
    43   20   22 1    
    44   22   23 1    
    45   22   24 1    
    46   22   90 1    
    47   23   91 1    
    48   23   92 1    
    49   23   93 1    
    50   24   25 am   BACKBONE|DICT|INTERRES
    51   24   94 1    
    52   25   26 2    
    53   25   27 1    
    54   27   28 1    
    55   27   29 1    
    56   27   95 1    
    57   28   96 1    
    58   28   97 1    
    59   28   98 1    
    60   29   30 am   BACKBONE|DICT|INTERRES
    61   29   99 1    
    62   30   31 2    
    63   30   32 1    
    64   32   33 1    
    65   32   34 1    
    66   32  100 1    
    67   33  101 1    
    68   33  102 1    
    69   33  103 1    
    70   34   35 am   BACKBONE|DICT|INTERRES
    71   34  104 1    
    72   35   36 2    
    73   37   38 2    
    74   37   39 am   BACKBONE|DICT|INTERRES
    75   39   40 1    
    76   39  105 1    
    77   40   41 1    
    78   40   42 1    
    79   40  106 1    
    80   41  107 1    
    81   41  108 1    
    82   41  109 1    
    83   42   43 2    
    84   42   44 am   BACKBONE|DICT|INTERRES
    85   44   45 1    
    86   44  110 1    
    87   45   46 1    
    88   45   47 1    
    89   45  111 1    
    90   46  112 1    
    91   46  113 1    
    92   46  114 1    
    93   47   48 2    
    94   47   49 am   BACKBONE|DICT|INTERRES
    95   49   50 1    
    96   49  115 1    
    97   50   51 1    
    98   50   52 1    
    99   50  116 1    
   100   51  117 1    
   101   51  118 1    
   102   51  119 1    
   103   52   53 2    
   104   52   54 am   BACKBONE|DICT|INTERRES
   105   54   55 1    
   106   54  120 1    
   107   55   56 1    
   108   55   57 1    
   109   55  121 1    
   110   56  122 1    
   111   56  123 1    
   112   56  124 1    
   113   57   58 2    
   114   57   59 am   BACKBONE|DICT|INTERRES
   115   59   60 1    
   116   59  125 1    
   117   60   61 1    
   118   60   62 1    
   119   60  126 1    
   120   61  127 1    
   121   61  128 1    
   122   61  129 1    
   123   62   63 2    
   124   62   64 am   BACKBONE|DICT|INTERRES
   125   64   65 1    
   126   64  130 1    
   127   65   66 1    
   128   65   69 1    
   129   65  131 1    
   130   66   67 am   BACKBONE|DICT|INTERRES
   131   66   68 2    
   132   67  132 1    
   133   67  133 1    
   134   69   70 1    
   135   69  134 1    
   136   69  135 1    
   137   70   71 1    
   138   71  136 1    
   139   71  137 1    
@<TRIPOS>SUBSTRUCTURE
     1 UNK         1 GROUP             0       ****    0 ROOT    
