@<TRIPOS>MOLECULE
3R137
137   139    1
SMALL
USER_CHARGES


@<TRIPOS>ATOM
      1 CA         23.1878   -6.1416   -3.2221 C.3       0 UNK        -0.2020 
      2 C          24.0960   -5.3037   -2.3348 C.2       0 UNK         0.4855 
      3 O          23.6503   -4.2917   -1.7934 O.2       0 UNK        -0.5197 
      4 N          25.3630   -5.7196   -2.1882 N.am      1 UNK        -0.4892 
      5 CA         26.4190   -5.0696   -1.3988 C.3       1 UNK         0.0835 
      6 C6         27.7268   -5.9131   -1.4476 C.3       12 UNK        -0.0855 
      7 S7         29.2455   -5.0914   -0.8341 S.3       12 UNK        -0.2931 
      8 C8         30.0723   -4.7139   -2.4212 C.3       12 UNK         0.0378 
      9 C9         30.8222   -3.3853   -2.4447 C.ar      12 UNK        -0.0802 
     10 C10        32.0068   -3.2905   -3.1809 C.ar      12 UNK        -0.0944 
     11 C11        32.6814   -2.0709   -3.3018 C.ar      12 UNK        -0.0787 
     12 C12        32.1825   -0.9487   -2.6361 C.ar      12 UNK        -0.0862 
     13 C13        30.9995   -1.0231   -1.8951 C.ar      12 UNK        -0.0733 
     14 C14        30.3179   -2.2412   -1.8126 C.ar      12 UNK        -0.0832 
     15 C15        30.4742    0.2076   -1.1661 C.3       12 UNK         0.0240 
     16 S16        29.1177    1.0375   -2.0565 S.3       12 UNK        -0.2522 
     17 C17        29.9551    1.6932   -3.5391 C.3       12 UNK        -0.0967 
     18 CA         29.1750    1.4979   -4.8636 C.3       5 UNK         0.0660 
     19 N          28.6097    0.1549   -5.0305 N.am      5 UNK        -0.4015 
     20 C          28.3745   -0.4115   -6.2219 C.2       4 UNK         0.4946 
     21 O          28.6483    0.1218   -7.2978 O.2       4 UNK        -0.5353 
     22 CA         27.6899   -1.7876   -6.2205 C.3       4 UNK         0.0277 
     23 CB         28.6860   -2.8945   -5.8441 C.3       4 UNK        -0.1981 
     24 N          26.5217   -1.8426   -5.3405 N.am      4 UNK        -0.4209 
     25 C          25.3798   -1.1706   -5.5621 C.2       3 UNK         0.4942 
     26 O          25.2041   -0.4322   -6.5303 O.2       3 UNK        -0.5208 
     27 CA         24.2477   -1.3138   -4.5235 C.3       3 UNK         0.0250 
     28 CB         23.3202   -2.4759   -4.9099 C.3       3 UNK        -0.1990 
     29 N          24.7243   -1.5113   -3.1532 N.am      3 UNK        -0.4232 
     30 C          25.5810   -0.7009   -2.5147 C.2       2 UNK         0.4993 
     31 O          25.9452    0.3856   -2.9634 O.2       2 UNK        -0.5286 
     32 CA         26.1900   -1.2079   -1.1938 C.3       2 UNK         0.0209 
     33 CB         25.5267   -0.5111    0.0043 C.3       2 UNK        -0.1931 
     34 N          26.1439   -2.6625   -0.9949 N.am      2 UNK        -0.4546 
     35 C          26.6045   -3.5997   -1.8387 C.2       1 UNK         0.5154 
     36 O          27.1042   -3.3499   -2.9381 O.2       1 UNK        -0.5181 
     37 C          28.1427    2.6123   -5.1225 C.2       5 UNK         0.5014 
     38 O          28.5477    3.7013   -5.5311 O.2       5 UNK        -0.5248 
     39 N          26.8414    2.3333   -4.9423 N.am      6 UNK        -0.4434 
     40 CA         25.7536    3.2162   -5.3775 C.3       6 UNK         0.0363 
     41 CB         24.4121    2.7306   -4.8089 C.3       6 UNK        -0.1936 
     42 C          25.6852    3.3400   -6.9111 C.2       6 UNK         0.5081 
     43 O          25.4988    4.4466   -7.4179 O.2       6 UNK        -0.5248 
     44 N          25.8693    2.2165   -7.6224 N.am      7 UNK        -0.4718 
     45 CA         26.0176    2.1751   -9.0809 C.3       7 UNK         0.0273 
     46 CB         25.8787    0.7254   -9.5733 C.3       7 UNK        -0.1935 
     47 C          27.3500    2.7785   -9.5588 C.2       7 UNK         0.5018 
     48 O          27.3978    3.3417  -10.6527 O.2       7 UNK        -0.5186 
     49 N          28.4050    2.6326   -8.7435 N.am      8 UNK        -0.4240 
     50 CA         29.7720    3.1609   -8.8702 C.3       8 UNK         0.0235 
     51 CB         29.7782    4.6989   -8.9577 C.3       8 UNK        -0.2000 
     52 C          30.6044    2.5339  -10.0011 C.2       8 UNK         0.4941 
     53 O          31.8023    2.3212   -9.8179 O.2       8 UNK        -0.5273 
     54 N          29.9700    2.2184  -11.1361 N.am      9 UNK        -0.4262 
     55 CA         30.5720    1.4954  -12.2581 C.3       9 UNK         0.0264 
     56 CB         29.6450    1.5968  -13.4800 C.3       9 UNK        -0.1955 
     57 C          30.8712    0.0214  -11.9285 C.2       9 UNK         0.5031 
     58 O          31.7976   -0.5482  -12.5069 O.2       9 UNK        -0.5390 
     59 N          30.0829   -0.5688  -11.0184 N.am      10 UNK        -0.4204 
     60 CA         30.2230   -1.9554  -10.5742 C.3       10 UNK         0.0237 
     61 CB         28.8974   -2.4314   -9.9614 C.3       10 UNK        -0.1985 
     62 C          31.3873   -2.1581   -9.5901 C.2       10 UNK         0.4970 
     63 O          32.0513   -3.1926   -9.6653 O.2       10 UNK        -0.4914 
     64 N          31.6202   -1.1881   -8.6969 N.am      11 UNK        -0.4285 
     65 CA         32.6980   -1.2113   -7.7021 C.3       11 UNK         0.1007 
     66 C          32.9970    0.2235   -7.2061 C.2       11 UNK         0.5703 
     67 N          34.2642    0.6011   -7.1065 N.am      11 UNK        -0.7361 
     68 O          32.0899    0.9817   -6.8745 O.2       11 UNK        -0.4986 
     69 C69        32.3821   -2.1739   -6.5248 C.3       12 UNK        -0.0947 
     70 S70        33.8834   -2.8463   -5.7343 S.3       12 UNK        -0.2240 
     71 C71        33.9452   -1.9399   -4.1494 C.3       12 UNK         0.0194 
     72 H72        23.7246   -6.9605   -3.7006 H         1 UNK         0.0906 
     73 H73        22.3770   -6.5664   -2.6308 H         1 UNK         0.0906 
     74 H74        22.7486   -5.5228   -4.0039 H         1 UNK         0.0906 
     75 H75        25.6527   -6.5512   -2.6830 H         1 UNK         0.3140 
     76 H76        26.0815   -5.0622   -0.3603 H         1 UNK         0.1085 
     77 H77        27.9071   -6.2618   -2.4660 H         1 UNK         0.0836 
     78 H78        27.5861   -6.8218   -0.8601 H         1 UNK         0.0836 
     79 H79        29.3447   -4.6848   -3.2322 H         1 UNK         0.0731 
     80 H80        30.7487   -5.5387   -2.6509 H         1 UNK         0.0731 
     81 H81        32.3903   -4.1646   -3.6888 H         1 UNK         0.1312 
     82 H82        32.7129   -0.0087   -2.7040 H         1 UNK         0.1406 
     83 H83        29.3926   -2.2961   -1.2567 H         1 UNK         0.1631 
     84 H84        31.2784    0.9241   -0.9910 H         1 UNK         0.0717 
     85 H85        30.1133   -0.0860   -0.1793 H         1 UNK         0.0717 
     86 H86        30.1874    2.7468   -3.3709 H         1 UNK         0.0934 
     87 H87        30.9246    1.2108   -3.6464 H         1 UNK         0.0934 
     88 H88        29.9137    1.6273   -5.6563 H         1 UNK         0.0739 
     89 H89        28.3398   -0.3245   -4.1832 H         1 UNK         0.3093 
     90 H90        27.3338   -1.9848   -7.2328 H         1 UNK         0.0818 
     91 H91        29.1270   -2.7275   -4.8605 H         1 UNK         0.0819 
     92 H92        28.2082   -3.8741   -5.8334 H         1 UNK         0.0819 
     93 H93        29.4998   -2.9400   -6.5671 H         1 UNK         0.0819 
     94 H94        26.6096   -2.4108   -4.4998 H         1 UNK         0.3041 
     95 H95        23.6636   -0.3929   -4.5340 H         1 UNK         0.0784 
     96 H96        22.8979   -2.3229   -5.9041 H         1 UNK         0.0793 
     97 H97        23.8545   -3.4264   -4.9255 H         1 UNK         0.0793 
     98 H98        22.4861   -2.5696   -4.2140 H         1 UNK         0.0793 
     99 H99        24.4704   -2.3821   -2.7014 H         1 UNK         0.3024 
    100 H100       27.2435   -0.9295   -1.2091 H         1 UNK         0.1171 
    101 H101       24.4747   -0.7838    0.0970 H         1 UNK         0.0786 
    102 H102       25.5752    0.5740   -0.1003 H         1 UNK         0.0786 
    103 H103       26.0260   -0.7653    0.9394 H         1 UNK         0.0786 
    104 H104       25.6975   -2.9731   -0.1436 H         1 UNK         0.2977 
    105 H105       26.5770    1.4644   -4.4856 H         1 UNK         0.3127 
    106 H106       25.9505    4.2104   -4.9705 H         1 UNK         0.0770 
    107 H107       24.1274    1.7643   -5.2222 H         1 UNK         0.0814 
    108 H108       23.6130    3.4329   -5.0491 H         1 UNK         0.0814 
    109 H109       24.4481    2.6374   -3.7234 H         1 UNK         0.0814 
    110 H110       25.9228    1.3267   -7.1343 H         1 UNK         0.2983 
    111 H111       25.2122    2.7660   -9.5226 H         1 UNK         0.0947 
    112 H112       25.9742    0.6683  -10.6584 H         1 UNK         0.0806 
    113 H113       24.9045    0.3119   -9.3115 H         1 UNK         0.0806 
    114 H114       26.6406    0.0755   -9.1419 H         1 UNK         0.0806 
    115 H115       28.2694    2.0224   -7.9438 H         1 UNK         0.3000 
    116 H116       30.2695    2.8867   -7.9382 H         1 UNK         0.0850 
    117 H117       30.7984    5.0841   -8.9400 H         1 UNK         0.0810 
    118 H118       29.2492    5.1422   -8.1136 H         1 UNK         0.0810 
    119 H119       29.3114    5.0596   -9.8746 H         1 UNK         0.0810 
    120 H120       28.9952    2.4974  -11.2177 H         1 UNK         0.3040 
    121 H121       31.5201    1.9782  -12.5046 H         1 UNK         0.0766 
    122 H122       29.4834    2.6352  -13.7700 H         1 UNK         0.0812 
    123 H123       28.6702    1.1468  -13.2871 H         1 UNK         0.0812 
    124 H124       30.0767    1.0845  -14.3410 H         1 UNK         0.0812 
    125 H125       29.3500   -0.0207  -10.5932 H         1 UNK         0.3205 
    126 H126       30.4257   -2.5767  -11.4496 H         1 UNK         0.0754 
    127 H127       28.9807   -3.4514   -9.5832 H         1 UNK         0.0769 
    128 H128       28.0944   -2.4232  -10.6988 H         1 UNK         0.0769 
    129 H129       28.5940   -1.7968   -9.1315 H         1 UNK         0.0769 
    130 H130       31.0446   -0.3565   -8.6821 H         1 UNK         0.2981 
    131 H131       33.5888   -1.5724   -8.2209 H         1 UNK         0.0541 
    132 H132       35.0162   -0.0220   -7.3556 H         1 UNK         0.3459 
    133 H133       34.4702    1.5307   -6.7771 H         1 UNK         0.3459 
    134 H134       31.7225   -1.7035   -5.7936 H         1 UNK         0.0612 
    135 H135       31.8364   -3.0455   -6.8861 H         1 UNK         0.0612 
    136 H136       34.1501   -0.8909   -4.3688 H         1 UNK         0.0624 
    137 H137       34.7934   -2.3070   -3.5706 H         1 UNK         0.0624 
@<TRIPOS>BOND
     1    1    2 1    
     2    1   72 1    
     3    1   73 1    
     4    1   74 1    
     5    2    3 2    
     6    2    4 am   BACKBONE|DICT|INTERRES
     7    4    5 1    
     8    4   75 1    
     9    5    6 1    
    10    5   35 1    
    11    5   76 1    
    12    6    7 1    
    13    6   77 1    
    14    6   78 1    
    15    7    8 1    
    16    8    9 1    
    17    8   79 1    
    18    8   80 1    
    19    9   10 ar   
    20    9   14 ar   
    21   10   11 ar   
    22   10   81 1    
    23   11   12 ar   
    24   11   71 1    
    25   12   13 ar   
    26   12   82 1    
    27   13   14 ar   
    28   13   15 1    
    29   14   83 1    
    30   15   16 1    
    31   15   84 1    
    32   15   85 1    
    33   16   17 1    
    34   17   18 1    
    35   17   86 1    
    36   17   87 1    
    37   18   19 1    
    38   18   37 1    
    39   18   88 1    
    40   19   20 am   BACKBONE|DICT|INTERRES
    41   19   89 1    
    42   20   21 2    
    43   20   22 1    
    44   22   23 1    
    45   22   24 1    
    46   22   90 1    
    47   23   91 1    
    48   23   92 1    
    49   23   93 1    
    50   24   25 am   BACKBONE|DICT|INTERRES
    51   24   94 1    
    52   25   26 2    
    53   25   27 1    
    54   27   28 1    
    55   27   29 1    
    56   27   95 1    
    57   28   96 1    
    58   28   97 1    
    59   28   98 1    
    60   29   30 am   BACKBONE|DICT|INTERRES
    61   29   99 1    
    62   30   31 2    
    63   30   32 1    
    64   32   33 1    
    65   32   34 1    
    66   32  100 1    
    67   33  101 1    
    68   33  102 1    
    69   33  103 1    
    70   34   35 am   BACKBONE|DICT|INTERRES
    71   34  104 1    
    72   35   36 2    
    73   37   38 2    
    74   37   39 am   BACKBONE|DICT|INTERRES
    75   39   40 1    
    76   39  105 1    
    77   40   41 1    
    78   40   42 1    
    79   40  106 1    
    80   41  107 1    
    81   41  108 1    
    82   41  109 1    
    83   42   43 2    
    84   42   44 am   BACKBONE|DICT|INTERRES
    85   44   45 1    
    86   44  110 1    
    87   45   46 1    
    88   45   47 1    
    89   45  111 1    
    90   46  112 1    
    91   46  113 1    
    92   46  114 1    
    93   47   48 2    
    94   47   49 am   BACKBONE|DICT|INTERRES
    95   49   50 1    
    96   49  115 1    
    97   50   51 1    
    98   50   52 1    
    99   50  116 1    
   100   51  117 1    
   101   51  118 1    
   102   51  119 1    
   103   52   53 2    
   104   52   54 am   BACKBONE|DICT|INTERRES
   105   54   55 1    
   106   54  120 1    
   107   55   56 1    
   108   55   57 1    
   109   55  121 1    
   110   56  122 1    
   111   56  123 1    
   112   56  124 1    
   113   57   58 2    
   114   57   59 am   BACKBONE|DICT|INTERRES
   115   59   60 1    
   116   59  125 1    
   117   60   61 1    
   118   60   62 1    
   119   60  126 1    
   120   61  127 1    
   121   61  128 1    
   122   61  129 1    
   123   62   63 2    
   124   62   64 am   BACKBONE|DICT|INTERRES
   125   64   65 1    
   126   64  130 1    
   127   65   66 1    
   128   65   69 1    
   129   65  131 1    
   130   66   67 am   BACKBONE|DICT|INTERRES
   131   66   68 2    
   132   67  132 1    
   133   67  133 1    
   134   69   70 1    
   135   69  134 1    
   136   69  135 1    
   137   70   71 1    
   138   71  136 1    
   139   71  137 1    
@<TRIPOS>SUBSTRUCTURE
     1 UNK         1 GROUP             0       ****    0 ROOT    
