@<TRIPOS>MOLECULE
3R137
137   139    1
SMALL
USER_CHARGES


@<TRIPOS>ATOM
      1 CA         27.6999   -0.1369    4.0479 C.3       0 UNK        -0.2020 
      2 C          27.8815   -0.2643    2.5427 C.2       0 UNK         0.4855 
      3 O          27.4224    0.6005    1.7955 O.2       0 UNK        -0.5197 
      4 N          28.5543   -1.3308    2.0919 N.am      1 UNK        -0.4892 
      5 CA         28.7596   -1.6484    0.6750 C.3       1 UNK         0.0835 
      6 C6         29.9340   -2.6428    0.4973 C.3       12 UNK        -0.0855 
      7 S7         30.6124   -2.6089   -1.1951 S.3       12 UNK        -0.2931 
      8 C8         30.3547   -4.3372   -1.7184 C.3       12 UNK         0.0378 
      9 C9         30.5353   -4.5172   -3.2212 C.ar      12 UNK        -0.0802 
     10 C10        31.6752   -4.0256   -3.8673 C.ar      12 UNK        -0.0944 
     11 C11        31.8188   -4.1499   -5.2514 C.ar      12 UNK        -0.0787 
     12 C12        30.8272   -4.8017   -5.9889 C.ar      12 UNK        -0.0862 
     13 C13        29.6842   -5.3022   -5.3571 C.ar      12 UNK        -0.0733 
     14 C14        29.5514   -5.1699   -3.9718 C.ar      12 UNK        -0.0832 
     15 C15        28.5699   -5.9364   -6.1829 C.3       12 UNK         0.0240 
     16 S16        27.0757   -4.8864   -6.2624 S.3       12 UNK        -0.2522 
     17 C17        27.7997   -3.2453   -6.5894 C.3       12 UNK        -0.0967 
     18 CA         26.8935   -2.2989   -7.4093 C.3       5 UNK         0.0660 
     19 N          25.5905   -2.0515   -6.7956 N.am      5 UNK        -0.4015 
     20 C          24.5072   -1.6550   -7.4790 C.2       4 UNK         0.4946 
     21 O          24.4568   -1.5851   -8.7077 O.2       4 UNK        -0.5353 
     22 CA         23.2695   -1.2458   -6.6607 C.3       4 UNK         0.0277 
     23 CB         22.3367   -2.4509   -6.4586 C.3       4 UNK        -0.1981 
     24 N          23.5947   -0.6593   -5.3582 N.am      4 UNK        -0.4209 
     25 C          24.2771    0.4810   -5.1747 C.2       3 UNK         0.4942 
     26 O          24.6932    1.1927   -6.0886 O.2       3 UNK        -0.5208 
     27 CA         24.5959    0.8593   -3.7185 C.3       3 UNK         0.0250 
     28 CB         23.4330    1.6522   -3.1010 C.3       3 UNK        -0.1990 
     29 N          24.9179   -0.2914   -2.8645 N.am      3 UNK        -0.4232 
     30 C          25.9137   -1.1598   -3.0907 C.2       2 UNK         0.4993 
     31 O          26.6679   -1.1034   -4.0653 O.2       2 UNK        -0.5286 
     32 CA         26.1136   -2.2666   -2.0548 C.3       2 UNK         0.0209 
     33 CB         26.3150   -3.6385   -2.7221 C.3       2 UNK        -0.1931 
     34 N          27.2930   -1.9188   -1.2720 N.am      2 UNK        -0.4546 
     35 C          27.4532   -2.1663    0.0320 C.2       1 UNK         0.5154 
     36 O          26.6325   -2.7856    0.7157 O.2       1 UNK        -0.5181 
     37 C          27.6158   -0.9607   -7.6188 C.2       5 UNK         0.5014 
     38 O          28.0188   -0.6583   -8.7418 O.2       5 UNK        -0.5248 
     39 N          27.7736   -0.1920   -6.5296 N.am      6 UNK        -0.4434 
     40 CA         28.5771    1.0298   -6.4575 C.3       6 UNK         0.0363 
     41 CB         28.5330    1.5940   -5.0307 C.3       6 UNK        -0.1936 
     42 C          28.1975    2.1086   -7.4813 C.2       6 UNK         0.5081 
     43 O          29.0949    2.7492   -8.0266 O.2       6 UNK        -0.5248 
     44 N          26.8966    2.2573   -7.7642 N.am      7 UNK        -0.4718 
     45 CA         26.3691    3.1847   -8.7696 C.3       7 UNK         0.0273 
     46 CB         24.8365    3.2263   -8.6590 C.3       7 UNK        -0.1935 
     47 C          26.7904    2.8645  -10.2175 C.2       7 UNK         0.5018 
     48 O          26.7800    3.7730  -11.0495 O.2       7 UNK        -0.5186 
     49 N          27.1376    1.6008  -10.4984 N.am      8 UNK        -0.4240 
     50 CA         27.5502    1.1260  -11.8196 C.3       8 UNK         0.0235 
     51 CB         26.7526   -0.1419  -12.1705 C.3       8 UNK        -0.2000 
     52 C          29.0580    0.8436  -11.8744 C.2       8 UNK         0.4941 
     53 O          29.7186    1.2669  -12.8234 O.2       8 UNK        -0.5273 
     54 N          29.5723    0.1175  -10.8740 N.am      9 UNK        -0.4262 
     55 CA         30.9418   -0.3986  -10.8319 C.3       9 UNK         0.0264 
     56 CB         30.9321   -1.7336  -10.0681 C.3       9 UNK        -0.1955 
     57 C          31.9625    0.5728  -10.2136 C.2       9 UNK         0.5031 
     58 O          33.1595    0.2953  -10.2994 O.2       9 UNK        -0.5390 
     59 N          31.4940    1.6694   -9.5956 N.am      10 UNK        -0.4204 
     60 CA         32.2845    2.6917   -8.8920 C.3       10 UNK         0.0237 
     61 CB         33.2414    3.4280   -9.8555 C.3       10 UNK        -0.1985 
     62 C          32.9906    2.1617   -7.6255 C.2       10 UNK         0.4970 
     63 O          34.0350    2.6897   -7.2401 O.2       10 UNK        -0.4914 
     64 N          32.3967    1.1438   -6.9880 N.am      11 UNK        -0.4285 
     65 CA         32.8682    0.5252   -5.7363 C.3       11 UNK         0.1007 
     66 C          32.7145    1.4153   -4.4666 C.2       11 UNK         0.5703 
     67 N          32.0214    2.5469   -4.5195 N.am      11 UNK        -0.7361 
     68 O          33.2472    1.0757   -3.4130 O.2       11 UNK        -0.4986 
     69 C69        32.2254   -0.8703   -5.5127 C.3       12 UNK        -0.0947 
     70 S70        32.6002   -2.0377   -6.8642 S.3       12 UNK        -0.2240 
     71 C71        33.0304   -3.5576   -5.9566 C.3       12 UNK         0.0194 
     72 H72        28.1658   -0.9616    4.5872 H         1 UNK         0.0906 
     73 H73        28.1438    0.7931    4.4022 H         1 UNK         0.0906 
     74 H74        26.6392   -0.1251    4.2976 H         1 UNK         0.0906 
     75 H75        28.8749   -2.0278    2.7493 H         1 UNK         0.3140 
     76 H76        29.0276   -0.7128    0.1775 H         1 UNK         0.1085 
     77 H77        30.7542   -2.3711    1.1641 H         1 UNK         0.0836 
     78 H78        29.6437   -3.6558    0.7835 H         1 UNK         0.0836 
     79 H79        31.0568   -4.9841   -1.1907 H         1 UNK         0.0731 
     80 H80        29.3523   -4.6491   -1.4200 H         1 UNK         0.0731 
     81 H81        32.4384   -3.5186   -3.2928 H         1 UNK         0.1312 
     82 H82        30.9326   -4.8856   -7.0621 H         1 UNK         0.1406 
     83 H83        28.6635   -5.5522   -3.4868 H         1 UNK         0.1631 
     84 H84        28.3033   -6.9035   -5.7546 H         1 UNK         0.0717 
     85 H85        28.9118   -6.1359   -7.1996 H         1 UNK         0.0717 
     86 H86        28.0698   -2.8077   -5.6261 H         1 UNK         0.0934 
     87 H87        28.7370   -3.3844   -7.1309 H         1 UNK         0.0934 
     88 H88        26.7406   -2.7540   -8.3906 H         1 UNK         0.0739 
     89 H89        25.5674   -2.0451   -5.7851 H         1 UNK         0.3093 
     90 H90        22.7337   -0.4889   -7.2377 H         1 UNK         0.0818 
     91 H91        21.4133   -2.1599   -5.9575 H         1 UNK         0.0819 
     92 H92        22.0572   -2.8917   -7.4167 H         1 UNK         0.0819 
     93 H93        22.8100   -3.2349   -5.8659 H         1 UNK         0.0819 
     94 H94        23.2934   -1.1695   -4.5409 H         1 UNK         0.3041 
     95 H95        25.4727    1.5080   -3.7341 H         1 UNK         0.0784 
     96 H96        23.1883    2.5233   -3.7109 H         1 UNK         0.0793 
     97 H97        22.5284    1.0485   -3.0176 H         1 UNK         0.0793 
     98 H98        23.6861    2.0184   -2.1058 H         1 UNK         0.0793 
     99 H99        24.3596   -0.3982   -2.0293 H         1 UNK         0.3024 
    100 H100       25.2326   -2.3162   -1.4105 H         1 UNK         0.1171 
    101 H101       27.1920   -3.6413   -3.3690 H         1 UNK         0.0786 
    102 H102       26.4448   -4.4262   -1.9799 H         1 UNK         0.0786 
    103 H103       25.4553   -3.9071   -3.3371 H         1 UNK         0.0786 
    104 H104       28.0139   -1.4190   -1.7766 H         1 UNK         0.2977 
    105 H105       27.3799   -0.5174   -5.6471 H         1 UNK         0.3127 
    106 H106       29.6050    0.7367   -6.6706 H         1 UNK         0.0770 
    107 H107       27.5192    1.8686   -4.7422 H         1 UNK         0.0814 
    108 H108       29.1480    2.4901   -4.9430 H         1 UNK         0.0814 
    109 H109       28.9060    0.8712   -4.3045 H         1 UNK         0.0814 
    110 H110       26.2143    1.7117   -7.2429 H         1 UNK         0.2983 
    111 H111       26.7562    4.1791   -8.5368 H         1 UNK         0.0947 
    112 H112       24.4078    3.9198   -9.3839 H         1 UNK         0.0806 
    113 H113       24.5198    3.5566   -7.6695 H         1 UNK         0.0806 
    114 H114       24.3943    2.2457   -8.8409 H         1 UNK         0.0806 
    115 H115       27.1599    0.9244   -9.7428 H         1 UNK         0.3000 
    116 H116       27.3296    1.8771  -12.5812 H         1 UNK         0.0850 
    117 H117       27.0486   -0.5339  -13.1446 H         1 UNK         0.0810 
    118 H118       25.6835    0.0660  -12.2165 H         1 UNK         0.0810 
    119 H119       26.9046   -0.9356  -11.4374 H         1 UNK         0.0810 
    120 H120       28.9565   -0.1887  -10.1193 H         1 UNK         0.3040 
    121 H121       31.2749   -0.6015  -11.8520 H         1 UNK         0.0766 
    122 H122       30.5859   -1.6076   -9.0421 H         1 UNK         0.0812 
    123 H123       31.9305   -2.1712  -10.0247 H         1 UNK         0.0812 
    124 H124       30.2812   -2.4621  -10.5515 H         1 UNK         0.0812 
    125 H125       30.4907    1.8067   -9.5607 H         1 UNK         0.3205 
    126 H126       31.5674    3.4320   -8.5364 H         1 UNK         0.0754 
    127 H127       33.6943    4.2936   -9.3706 H         1 UNK         0.0769 
    128 H128       32.7135    3.7924  -10.7368 H         1 UNK         0.0769 
    129 H129       34.0550    2.7853  -10.1928 H         1 UNK         0.0769 
    130 H130       31.5628    0.7484   -7.3908 H         1 UNK         0.2981 
    131 H131       33.9430    0.3703   -5.8484 H         1 UNK         0.0541 
    132 H132       31.6037    2.8533   -5.3820 H         1 UNK         0.3459 
    133 H133       31.9425    3.1124   -3.6895 H         1 UNK         0.3459 
    134 H134       31.1414   -0.7895   -5.4163 H         1 UNK         0.0612 
    135 H135       32.5806   -1.3016   -4.5753 H         1 UNK         0.0612 
    136 H136       33.4299   -4.2872   -6.6622 H         1 UNK         0.0624 
    137 H137       33.8325   -3.3444   -5.2482 H         1 UNK         0.0624 
@<TRIPOS>BOND
     1    1    2 1    
     2    1   72 1    
     3    1   73 1    
     4    1   74 1    
     5    2    3 2    
     6    2    4 am   BACKBONE|DICT|INTERRES
     7    4    5 1    
     8    4   75 1    
     9    5    6 1    
    10    5   35 1    
    11    5   76 1    
    12    6    7 1    
    13    6   77 1    
    14    6   78 1    
    15    7    8 1    
    16    8    9 1    
    17    8   79 1    
    18    8   80 1    
    19    9   10 ar   
    20    9   14 ar   
    21   10   11 ar   
    22   10   81 1    
    23   11   12 ar   
    24   11   71 1    
    25   12   13 ar   
    26   12   82 1    
    27   13   14 ar   
    28   13   15 1    
    29   14   83 1    
    30   15   16 1    
    31   15   84 1    
    32   15   85 1    
    33   16   17 1    
    34   17   18 1    
    35   17   86 1    
    36   17   87 1    
    37   18   19 1    
    38   18   37 1    
    39   18   88 1    
    40   19   20 am   BACKBONE|DICT|INTERRES
    41   19   89 1    
    42   20   21 2    
    43   20   22 1    
    44   22   23 1    
    45   22   24 1    
    46   22   90 1    
    47   23   91 1    
    48   23   92 1    
    49   23   93 1    
    50   24   25 am   BACKBONE|DICT|INTERRES
    51   24   94 1    
    52   25   26 2    
    53   25   27 1    
    54   27   28 1    
    55   27   29 1    
    56   27   95 1    
    57   28   96 1    
    58   28   97 1    
    59   28   98 1    
    60   29   30 am   BACKBONE|DICT|INTERRES
    61   29   99 1    
    62   30   31 2    
    63   30   32 1    
    64   32   33 1    
    65   32   34 1    
    66   32  100 1    
    67   33  101 1    
    68   33  102 1    
    69   33  103 1    
    70   34   35 am   BACKBONE|DICT|INTERRES
    71   34  104 1    
    72   35   36 2    
    73   37   38 2    
    74   37   39 am   BACKBONE|DICT|INTERRES
    75   39   40 1    
    76   39  105 1    
    77   40   41 1    
    78   40   42 1    
    79   40  106 1    
    80   41  107 1    
    81   41  108 1    
    82   41  109 1    
    83   42   43 2    
    84   42   44 am   BACKBONE|DICT|INTERRES
    85   44   45 1    
    86   44  110 1    
    87   45   46 1    
    88   45   47 1    
    89   45  111 1    
    90   46  112 1    
    91   46  113 1    
    92   46  114 1    
    93   47   48 2    
    94   47   49 am   BACKBONE|DICT|INTERRES
    95   49   50 1    
    96   49  115 1    
    97   50   51 1    
    98   50   52 1    
    99   50  116 1    
   100   51  117 1    
   101   51  118 1    
   102   51  119 1    
   103   52   53 2    
   104   52   54 am   BACKBONE|DICT|INTERRES
   105   54   55 1    
   106   54  120 1    
   107   55   56 1    
   108   55   57 1    
   109   55  121 1    
   110   56  122 1    
   111   56  123 1    
   112   56  124 1    
   113   57   58 2    
   114   57   59 am   BACKBONE|DICT|INTERRES
   115   59   60 1    
   116   59  125 1    
   117   60   61 1    
   118   60   62 1    
   119   60  126 1    
   120   61  127 1    
   121   61  128 1    
   122   61  129 1    
   123   62   63 2    
   124   62   64 am   BACKBONE|DICT|INTERRES
   125   64   65 1    
   126   64  130 1    
   127   65   66 1    
   128   65   69 1    
   129   65  131 1    
   130   66   67 am   BACKBONE|DICT|INTERRES
   131   66   68 2    
   132   67  132 1    
   133   67  133 1    
   134   69   70 1    
   135   69  134 1    
   136   69  135 1    
   137   70   71 1    
   138   71  136 1    
   139   71  137 1    
@<TRIPOS>SUBSTRUCTURE
     1 UNK         1 GROUP             0       ****    0 ROOT    
