@<TRIPOS>MOLECULE
3R137
137   139    1
SMALL
USER_CHARGES


@<TRIPOS>ATOM
      1 CA         25.7980    1.5579    3.2771 C.3       0 UNK        -0.2020 
      2 C          26.1968    0.4742    2.2865 C.2       0 UNK         0.4855 
      3 O          26.0407   -0.7096    2.5853 O.2       0 UNK        -0.5197 
      4 N          26.7107    0.8749    1.1138 N.am      1 UNK        -0.4892 
      5 CA         27.1412    0.0035    0.0088 C.3       1 UNK         0.0835 
      6 C6         28.3668   -0.8839    0.3876 C.3       12 UNK        -0.0855 
      7 S7         29.6208   -0.9092   -0.9341 S.3       12 UNK        -0.2931 
      8 C8         29.5081   -2.6251   -1.5515 C.3       12 UNK         0.0378 
      9 C9         30.0647   -2.8195   -2.9644 C.ar      12 UNK        -0.0802 
     10 C10        31.0866   -2.0120   -3.4826 C.ar      12 UNK        -0.0944 
     11 C11        31.5453   -2.1901   -4.7904 C.ar      12 UNK        -0.0787 
     12 C12        30.9984   -3.2038   -5.5808 C.ar      12 UNK        -0.0862 
     13 C13        30.0015   -4.0380   -5.0702 C.ar      12 UNK        -0.0733 
     14 C14        29.5358   -3.8367   -3.7669 C.ar      12 UNK        -0.0832 
     15 C15        29.4461   -5.1771   -5.9105 C.3       12 UNK         0.0240 
     16 S16        27.8639   -4.7412   -6.6923 S.3       12 UNK        -0.2522 
     17 C17        28.3917   -3.7921   -8.1639 C.3       12 UNK        -0.0967 
     18 CA         27.7218   -2.4004   -8.2984 C.3       5 UNK         0.0660 
     19 N          26.2755   -2.4665   -8.0742 N.am      5 UNK        -0.4015 
     20 C          25.3947   -1.5061   -8.3795 C.2       4 UNK         0.4946 
     21 O          25.6935   -0.4624   -8.9556 O.2       4 UNK        -0.5353 
     22 CA         23.9464   -1.7220   -7.9062 C.3       4 UNK         0.0277 
     23 CB         23.1521   -2.5275   -8.9462 C.3       4 UNK        -0.1981 
     24 N          23.8569   -2.3778   -6.5950 N.am      4 UNK        -0.4209 
     25 C          24.3675   -1.8744   -5.4625 C.2       3 UNK         0.4942 
     26 O          24.9723   -0.8015   -5.4091 O.2       3 UNK        -0.5208 
     27 CA         24.2552   -2.7588   -4.2102 C.3       3 UNK         0.0250 
     28 CB         25.4156   -3.7655   -4.1645 C.3       3 UNK        -0.1990 
     29 N          24.2667   -1.9876   -2.9675 N.am      3 UNK        -0.4232 
     30 C          23.3027   -1.1607   -2.5525 C.2       2 UNK         0.4993 
     31 O          22.2755   -0.9368   -3.1951 O.2       2 UNK        -0.5286 
     32 CA         23.4748   -0.4918   -1.1741 C.3       2 UNK         0.0209 
     33 CB         22.8782   -1.3836   -0.0674 C.3       2 UNK        -0.1931 
     34 N          24.8320   -0.0520   -0.8039 N.am      2 UNK        -0.4546 
     35 C          25.9470   -0.7737   -0.5993 C.2       1 UNK         0.5154 
     36 O          26.0368   -1.9788   -0.8405 O.2       1 UNK        -0.5181 
     37 C          28.4210   -1.3246   -7.4391 C.2       5 UNK         0.5014 
     38 O          29.4152   -0.7544   -7.8945 O.2       5 UNK        -0.5248 
     39 N          27.8820   -1.0323   -6.2455 N.am      6 UNK        -0.4434 
     40 CA         28.3419    0.0594   -5.3870 C.3       6 UNK         0.0363 
     41 CB         27.8217   -0.1301   -3.9526 C.3       6 UNK        -0.1936 
     42 C          27.8904    1.4144   -5.9464 C.2       6 UNK         0.5081 
     43 O          28.7037    2.3327   -6.0351 O.2       6 UNK        -0.5248 
     44 N          26.6135    1.4998   -6.3494 N.am      7 UNK        -0.4718 
     45 CA         26.0024    2.6828   -6.9639 C.3       7 UNK         0.0273 
     46 CB         24.4915    2.4536   -7.1267 C.3       7 UNK        -0.1935 
     47 C          26.6479    3.0674   -8.3072 C.2       7 UNK         0.5018 
     48 O          26.8778    4.2521   -8.5517 O.2       7 UNK        -0.5186 
     49 N          26.9616    2.0601   -9.1336 N.am      8 UNK        -0.4240 
     50 CA         27.6981    2.2041  -10.3925 C.3       8 UNK         0.0235 
     51 CB         27.4873    0.9391  -11.2415 C.3       8 UNK        -0.2000 
     52 C          29.2046    2.4662  -10.2039 C.2       8 UNK         0.4941 
     53 O          29.8607    2.8464  -11.1743 O.2       8 UNK        -0.5273 
     54 N          29.7240    2.2443   -8.9856 N.am      9 UNK        -0.4262 
     55 CA         31.1298    2.3401   -8.5790 C.3       9 UNK         0.0264 
     56 CB         31.6171    3.8038   -8.6194 C.3       9 UNK        -0.1955 
     57 C          32.0335    1.3771   -9.3712 C.2       9 UNK         0.5031 
     58 O          33.0831    1.7824   -9.8767 O.2       9 UNK        -0.5390 
     59 N          31.6159    0.1041   -9.4491 N.am      10 UNK        -0.4204 
     60 CA         32.2915   -0.9717  -10.1895 C.3       10 UNK         0.0237 
     61 CB         31.4247   -2.2391  -10.1306 C.3       10 UNK        -0.1985 
     62 C          33.7202   -1.2820   -9.7021 C.2       10 UNK         0.4970 
     63 O          34.5124   -1.8396  -10.4623 O.2       10 UNK        -0.4914 
     64 N          34.0183   -0.9044   -8.4547 N.am      11 UNK        -0.4285 
     65 CA         35.3450   -0.9590   -7.8296 C.3       11 UNK         0.1007 
     66 C          36.3569    0.0828   -8.3935 C.2       11 UNK         0.5703 
     67 N          35.9357    1.0879   -9.1550 N.am      11 UNK        -0.7361 
     68 O          37.5534   -0.0289   -8.1372 O.2       11 UNK        -0.4986 
     69 C69        35.2393   -0.8424   -6.2854 C.3       12 UNK        -0.0947 
     70 S70        34.2059   -2.1482   -5.5394 S.3       12 UNK        -0.2240 
     71 C71        32.6183   -1.2766   -5.3583 C.3       12 UNK         0.0194 
     72 H72        24.7345    1.4854    3.5035 H         1 UNK         0.0906 
     73 H73        26.3531    1.4381    4.2072 H         1 UNK         0.0906 
     74 H74        25.9950    2.5582    2.8918 H         1 UNK         0.0906 
     75 H75        26.8174    1.8664    0.9444 H         1 UNK         0.3140 
     76 H76        27.4540    0.6956   -0.7750 H         1 UNK         0.1085 
     77 H77        28.8693   -0.4734    1.2649 H         1 UNK         0.0836 
     78 H78        28.0796   -1.8958    0.6795 H         1 UNK         0.0836 
     79 H79        30.0374   -3.2863   -0.8645 H         1 UNK         0.0731 
     80 H80        28.4607   -2.9296   -1.5354 H         1 UNK         0.0731 
     81 H81        31.5209   -1.2296   -2.8767 H         1 UNK         0.1312 
     82 H82        31.3615   -3.3476   -6.5890 H         1 UNK         0.1406 
     83 H83        28.7564   -4.4782   -3.3777 H         1 UNK         0.1631 
     84 H84        29.2884   -6.0491   -5.2739 H         1 UNK         0.0717 
     85 H85        30.1638   -5.4884   -6.6710 H         1 UNK         0.0717 
     86 H86        29.4783   -3.7078   -8.1888 H         1 UNK         0.0934 
     87 H87        28.1349   -4.3933   -9.0375 H         1 UNK         0.0934 
     88 H88        27.8610   -2.0812   -9.3336 H         1 UNK         0.0739 
     89 H89        25.9476   -3.2944   -7.5980 H         1 UNK         0.3093 
     90 H90        23.4841   -0.7373   -7.8123 H         1 UNK         0.0818 
     91 H91        22.1005   -2.6051   -8.6697 H         1 UNK         0.0819 
     92 H92        23.1922   -2.0458   -9.9244 H         1 UNK         0.0819 
     93 H93        23.5447   -3.5382   -9.0647 H         1 UNK         0.0819 
     94 H94        23.3803   -3.2681   -6.5631 H         1 UNK         0.3041 
     95 H95        23.3119   -3.3071   -4.2535 H         1 UNK         0.0784 
     96 H96        25.3915   -4.4303   -5.0282 H         1 UNK         0.0793 
     97 H97        26.3854   -3.2654   -4.1584 H         1 UNK         0.0793 
     98 H98        25.3609   -4.3953   -3.2762 H         1 UNK         0.0793 
     99 H99        25.0609   -2.1156   -2.3439 H         1 UNK         0.3024 
    100 H100       22.8758    0.4200   -1.2115 H         1 UNK         0.1171 
    101 H101       21.8409   -1.6398   -0.2875 H         1 UNK         0.0786 
    102 H102       22.8891   -0.8777    0.8982 H         1 UNK         0.0786 
    103 H103       23.4278   -2.3195    0.0399 H         1 UNK         0.0786 
    104 H104       24.9003    0.9346   -0.5951 H         1 UNK         0.2977 
    105 H105       27.0276   -1.4932   -5.9655 H         1 UNK         0.3127 
    106 H106       29.4338    0.0366   -5.3596 H         1 UNK         0.0770 
    107 H107       26.7599    0.0935   -3.8562 H         1 UNK         0.0814 
    108 H108       28.3493    0.5357   -3.2696 H         1 UNK         0.0814 
    109 H109       27.9743   -1.1487   -3.6018 H         1 UNK         0.0814 
    110 H110       26.0102    0.6955   -6.1986 H         1 UNK         0.2983 
    111 H111       26.1489    3.5202   -6.2783 H         1 UNK         0.0947 
    112 H112       24.0037    3.3427   -7.5283 H         1 UNK         0.0806 
    113 H113       24.0188    2.2268   -6.1707 H         1 UNK         0.0806 
    114 H114       24.2791    1.6297   -7.8082 H         1 UNK         0.0806 
    115 H115       26.6465    1.1204   -8.8967 H         1 UNK         0.3000 
    116 H116       27.2841    3.0558  -10.9363 H         1 UNK         0.0850 
    117 H117       27.9822    1.0281  -12.2096 H         1 UNK         0.0810 
    118 H118       26.4290    0.7619  -11.4341 H         1 UNK         0.0810 
    119 H119       27.8908    0.0538  -10.7485 H         1 UNK         0.0810 
    120 H120       29.0905    1.9449   -8.2552 H         1 UNK         0.3040 
    121 H121       31.1679    2.0098   -7.5397 H         1 UNK         0.0766 
    122 H122       32.6249    3.8905   -8.2116 H         1 UNK         0.0812 
    123 H123       30.9708    4.4516   -8.0271 H         1 UNK         0.0812 
    124 H124       31.6443    4.1954   -9.6368 H         1 UNK         0.0812 
    125 H125       30.7575   -0.1525   -8.9595 H         1 UNK         0.3205 
    126 H126       32.3666   -0.6523  -11.2308 H         1 UNK         0.0754 
    127 H127       31.8583   -3.0393  -10.7320 H         1 UNK         0.0769 
    128 H128       30.4200   -2.0544  -10.5116 H         1 UNK         0.0769 
    129 H129       31.3365   -2.6092   -9.1092 H         1 UNK         0.0769 
    130 H130       33.2988   -0.4476   -7.9189 H         1 UNK         0.2981 
    131 H131       35.7673   -1.9394   -8.0581 H         1 UNK         0.0541 
    132 H132       34.9533    1.2052   -9.3800 H         1 UNK         0.3459 
    133 H133       36.6095    1.7466   -9.5110 H         1 UNK         0.3459 
    134 H134       34.8541    0.1374   -5.9968 H         1 UNK         0.0612 
    135 H135       36.2292   -0.9219   -5.8323 H         1 UNK         0.0612 
    136 H136       32.7592   -0.4037   -4.7189 H         1 UNK         0.0624 
    137 H137       32.2825   -0.9015   -6.3250 H         1 UNK         0.0624 
@<TRIPOS>BOND
     1    1    2 1    
     2    1   72 1    
     3    1   73 1    
     4    1   74 1    
     5    2    3 2    
     6    2    4 am   BACKBONE|DICT|INTERRES
     7    4    5 1    
     8    4   75 1    
     9    5    6 1    
    10    5   35 1    
    11    5   76 1    
    12    6    7 1    
    13    6   77 1    
    14    6   78 1    
    15    7    8 1    
    16    8    9 1    
    17    8   79 1    
    18    8   80 1    
    19    9   10 ar   
    20    9   14 ar   
    21   10   11 ar   
    22   10   81 1    
    23   11   12 ar   
    24   11   71 1    
    25   12   13 ar   
    26   12   82 1    
    27   13   14 ar   
    28   13   15 1    
    29   14   83 1    
    30   15   16 1    
    31   15   84 1    
    32   15   85 1    
    33   16   17 1    
    34   17   18 1    
    35   17   86 1    
    36   17   87 1    
    37   18   19 1    
    38   18   37 1    
    39   18   88 1    
    40   19   20 am   BACKBONE|DICT|INTERRES
    41   19   89 1    
    42   20   21 2    
    43   20   22 1    
    44   22   23 1    
    45   22   24 1    
    46   22   90 1    
    47   23   91 1    
    48   23   92 1    
    49   23   93 1    
    50   24   25 am   BACKBONE|DICT|INTERRES
    51   24   94 1    
    52   25   26 2    
    53   25   27 1    
    54   27   28 1    
    55   27   29 1    
    56   27   95 1    
    57   28   96 1    
    58   28   97 1    
    59   28   98 1    
    60   29   30 am   BACKBONE|DICT|INTERRES
    61   29   99 1    
    62   30   31 2    
    63   30   32 1    
    64   32   33 1    
    65   32   34 1    
    66   32  100 1    
    67   33  101 1    
    68   33  102 1    
    69   33  103 1    
    70   34   35 am   BACKBONE|DICT|INTERRES
    71   34  104 1    
    72   35   36 2    
    73   37   38 2    
    74   37   39 am   BACKBONE|DICT|INTERRES
    75   39   40 1    
    76   39  105 1    
    77   40   41 1    
    78   40   42 1    
    79   40  106 1    
    80   41  107 1    
    81   41  108 1    
    82   41  109 1    
    83   42   43 2    
    84   42   44 am   BACKBONE|DICT|INTERRES
    85   44   45 1    
    86   44  110 1    
    87   45   46 1    
    88   45   47 1    
    89   45  111 1    
    90   46  112 1    
    91   46  113 1    
    92   46  114 1    
    93   47   48 2    
    94   47   49 am   BACKBONE|DICT|INTERRES
    95   49   50 1    
    96   49  115 1    
    97   50   51 1    
    98   50   52 1    
    99   50  116 1    
   100   51  117 1    
   101   51  118 1    
   102   51  119 1    
   103   52   53 2    
   104   52   54 am   BACKBONE|DICT|INTERRES
   105   54   55 1    
   106   54  120 1    
   107   55   56 1    
   108   55   57 1    
   109   55  121 1    
   110   56  122 1    
   111   56  123 1    
   112   56  124 1    
   113   57   58 2    
   114   57   59 am   BACKBONE|DICT|INTERRES
   115   59   60 1    
   116   59  125 1    
   117   60   61 1    
   118   60   62 1    
   119   60  126 1    
   120   61  127 1    
   121   61  128 1    
   122   61  129 1    
   123   62   63 2    
   124   62   64 am   BACKBONE|DICT|INTERRES
   125   64   65 1    
   126   64  130 1    
   127   65   66 1    
   128   65   69 1    
   129   65  131 1    
   130   66   67 am   BACKBONE|DICT|INTERRES
   131   66   68 2    
   132   67  132 1    
   133   67  133 1    
   134   69   70 1    
   135   69  134 1    
   136   69  135 1    
   137   70   71 1    
   138   71  136 1    
   139   71  137 1    
@<TRIPOS>SUBSTRUCTURE
     1 UNK         1 GROUP             0       ****    0 ROOT    
