@<TRIPOS>MOLECULE
3R137
137   139    1
SMALL
USER_CHARGES


@<TRIPOS>ATOM
      1 CA         30.5531   -8.4034   -2.9413 C.3       0 UNK        -0.2020 
      2 C          29.7543   -7.2419   -2.3697 C.2       0 UNK         0.4855 
      3 O          29.0016   -7.4281   -1.4133 O.2       0 UNK        -0.5197 
      4 N          29.9125   -6.0439   -2.9474 N.am      1 UNK        -0.4892 
      5 CA         29.2316   -4.8103   -2.5262 C.3       1 UNK         0.0835 
      6 C6         29.9082   -3.5498   -3.1182 C.3       12 UNK        -0.0855 
      7 S7         31.6629   -3.4043   -2.6362 S.3       12 UNK        -0.2931 
      8 C8         31.5541   -2.3922   -1.1265 C.3       12 UNK         0.0378 
      9 C9         31.1121   -0.9665   -1.4224 C.ar      12 UNK        -0.0802 
     10 C10        31.9814   -0.0857   -2.0733 C.ar      12 UNK        -0.0944 
     11 C11        31.5844    1.2248   -2.3492 C.ar      12 UNK        -0.0787 
     12 C12        30.3218    1.6611   -1.9416 C.ar      12 UNK        -0.0862 
     13 C13        29.4372    0.7876   -1.3014 C.ar      12 UNK        -0.0733 
     14 C14        29.8397   -0.5258   -1.0418 C.ar      12 UNK        -0.0832 
     15 C15        28.0546    1.2661   -0.8759 C.3       12 UNK         0.0240 
     16 S16        26.7585    0.8203   -2.0806 S.3       12 UNK        -0.2522 
     17 C17        27.1897    1.8637   -3.5142 C.3       12 UNK        -0.0967 
     18 CA         27.3091    1.0223   -4.8184 C.3       5 UNK         0.0660 
     19 N          25.9921    0.5658   -5.2840 N.am      5 UNK        -0.4015 
     20 C          25.0491    1.3242   -5.8615 C.2       4 UNK         0.4946 
     21 O          25.2296    2.5058   -6.1642 O.2       4 UNK        -0.5353 
     22 CA         23.6707    0.6828   -6.1364 C.3       4 UNK         0.0277 
     23 CB         22.8632    1.4749   -7.1839 C.3       4 UNK        -0.1981 
     24 N          23.7091   -0.7273   -6.5421 N.am      4 UNK        -0.4209 
     25 C          23.9330   -1.7750   -5.7389 C.2       3 UNK         0.4942 
     26 O          24.2273   -1.6577   -4.5476 O.2       3 UNK        -0.5208 
     27 CA         23.7514   -3.1748   -6.3631 C.3       3 UNK         0.0250 
     28 CB         24.2495   -3.2625   -7.8251 C.3       3 UNK        -0.1990 
     29 N          24.3328   -4.2476   -5.5439 N.am      3 UNK        -0.4232 
     30 C          25.6317   -4.4461   -5.2768 C.2       2 UNK         0.4993 
     31 O          26.5456   -3.7541   -5.7296 O.2       2 UNK        -0.5286 
     32 CA         25.9574   -5.6620   -4.3906 C.3       2 UNK         0.0209 
     33 CB         25.8013   -6.9709   -5.1849 C.3       2 UNK        -0.1931 
     34 N          27.3224   -5.5991   -3.8660 N.am      2 UNK        -0.4546 
     35 C          27.7233   -4.8121   -2.8584 C.2       1 UNK         0.5154 
     36 O          26.9575   -4.1130   -2.1928 O.2       1 UNK        -0.5181 
     37 C          28.0990    1.7164   -5.9553 C.2       5 UNK         0.5014 
     38 O          28.3089    1.1041   -7.0058 O.2       5 UNK        -0.5248 
     39 N          28.5045    2.9774   -5.7508 N.am      6 UNK        -0.4434 
     40 CA         29.2594    3.7852   -6.7083 C.3       6 UNK         0.0363 
     41 CB         29.7779    5.0501   -6.0068 C.3       6 UNK        -0.1936 
     42 C          28.4657    4.1555   -7.9724 C.2       6 UNK         0.5081 
     43 O          29.0818    4.3391   -9.0212 O.2       6 UNK        -0.5248 
     44 N          27.1279    4.2225   -7.8835 N.am      7 UNK        -0.4718 
     45 CA         26.2507    4.4815   -9.0326 C.3       7 UNK         0.0273 
     46 CB         24.8577    4.9110   -8.5457 C.3       7 UNK        -0.1935 
     47 C          26.1531    3.2723   -9.9786 C.2       7 UNK         0.5018 
     48 O          25.9589    3.4588  -11.1799 O.2       7 UNK        -0.5186 
     49 N          26.3283    2.0637   -9.4272 N.am      8 UNK        -0.4240 
     50 CA         26.4620    0.8133  -10.1783 C.3       8 UNK         0.0235 
     51 CB         25.8839   -0.3333   -9.3322 C.3       8 UNK        -0.2000 
     52 C          27.9214    0.5099  -10.5696 C.2       8 UNK         0.4941 
     53 O          28.1507   -0.4604  -11.2923 O.2       8 UNK        -0.5273 
     54 N          28.8750    1.3121  -10.0669 N.am      9 UNK        -0.4262 
     55 CA         30.3309    1.1355  -10.1403 C.3       9 UNK         0.0264 
     56 CB         30.8364    1.2917  -11.5900 C.3       9 UNK        -0.1955 
     57 C          30.8035   -0.1724   -9.4719 C.2       9 UNK         0.5031 
     58 O          31.7635   -0.7922   -9.9341 O.2       9 UNK        -0.5390 
     59 N          30.1200   -0.5712   -8.3898 N.am      10 UNK        -0.4204 
     60 CA         30.3399   -1.8315   -7.6777 C.3       10 UNK         0.0237 
     61 CB         29.0691   -2.1816   -6.8906 C.3       10 UNK        -0.1985 
     62 C          31.5662   -1.8191   -6.7489 C.2       10 UNK         0.4970 
     63 O          31.9504   -2.8839   -6.2657 O.2       10 UNK        -0.4914 
     64 N          32.1531   -0.6371   -6.5151 N.am      11 UNK        -0.4285 
     65 CA         33.3370   -0.4225   -5.6679 C.3       11 UNK         0.1007 
     66 C          34.6298   -1.1547   -6.1362 C.2       11 UNK         0.5703 
     67 N          34.7444   -1.5623   -7.3954 N.am      11 UNK        -0.7361 
     68 O          35.5460   -1.3495   -5.3410 O.2       11 UNK        -0.4986 
     69 C69        33.6370    1.0875   -5.4673 C.3       12 UNK        -0.0947 
     70 S70        32.2150    2.0770   -4.8913 S.3       12 UNK        -0.2240 
     71 C71        32.5060    2.1741   -3.0961 C.3       12 UNK         0.0194 
     72 H72        31.1802   -8.0956   -3.7778 H         1 UNK         0.0906 
     73 H73        31.1984   -8.8286   -2.1730 H         1 UNK         0.0906 
     74 H74        29.8799   -9.1853   -3.2918 H         1 UNK         0.0906 
     75 H75        30.5711   -5.9377   -3.7067 H         1 UNK         0.3140 
     76 H76        29.3043   -4.7495   -1.4379 H         1 UNK         0.1085 
     77 H77        29.8654   -3.5744   -4.2081 H         1 UNK         0.0836 
     78 H78        29.3738   -2.6452   -2.8243 H         1 UNK         0.0836 
     79 H79        30.8794   -2.8729   -0.4165 H         1 UNK         0.0731 
     80 H80        32.5340   -2.3698   -0.6475 H         1 UNK         0.0731 
     81 H81        32.9622   -0.4266   -2.3747 H         1 UNK         0.1312 
     82 H82        30.0276    2.6829   -2.1362 H         1 UNK         0.1406 
     83 H83        29.1590   -1.2035   -0.5440 H         1 UNK         0.1631 
     84 H84        28.0516    2.3466   -0.7239 H         1 UNK         0.0717 
     85 H85        27.7993    0.8265    0.0895 H         1 UNK         0.0717 
     86 H86        26.4336    2.6445   -3.6162 H         1 UNK         0.0934 
     87 H87        28.1178    2.3807   -3.2853 H         1 UNK         0.0934 
     88 H88        27.8829    0.1243   -4.5853 H         1 UNK         0.0739 
     89 H89        25.7358   -0.3839   -5.0365 H         1 UNK         0.3093 
     90 H90        23.1219    0.7392   -5.1940 H         1 UNK         0.0818 
     91 H91        21.8816    1.0314   -7.3517 H         1 UNK         0.0819 
     92 H92        22.6941    2.5009   -6.8540 H         1 UNK         0.0819 
     93 H93        23.3807    1.5242   -8.1425 H         1 UNK         0.0819 
     94 H94        23.4809   -0.9158   -7.5067 H         1 UNK         0.3041 
     95 H95        22.6763   -3.3606   -6.3709 H         1 UNK         0.0784 
     96 H96        23.6546   -2.6388   -8.4926 H         1 UNK         0.0793 
     97 H97        25.2896   -2.9481   -7.9199 H         1 UNK         0.0793 
     98 H98        24.1784   -4.2821   -8.2040 H         1 UNK         0.0793 
     99 H99        23.6606   -4.8619   -5.1059 H         1 UNK         0.3024 
    100 H100       25.2612   -5.6700   -3.5485 H         1 UNK         0.1171 
    101 H101       24.7822   -7.0908   -5.5546 H         1 UNK         0.0786 
    102 H102       26.0211   -7.8400   -4.5643 H         1 UNK         0.0786 
    103 H103       26.4659   -6.9990   -6.0495 H         1 UNK         0.0786 
    104 H104       28.0280   -6.1154   -4.3696 H         1 UNK         0.2977 
    105 H105       28.2617    3.4280   -4.8816 H         1 UNK         0.3127 
    106 H106       30.1225    3.1975   -7.0288 H         1 UNK         0.0770 
    107 H107       28.9615    5.6750   -5.6424 H         1 UNK         0.0814 
    108 H108       30.3734    5.6575   -6.6899 H         1 UNK         0.0814 
    109 H109       30.4171    4.8004   -5.1596 H         1 UNK         0.0814 
    110 H110       26.6743    3.9909   -7.0067 H         1 UNK         0.2983 
    111 H111       26.6751    5.3097   -9.6051 H         1 UNK         0.0947 
    112 H112       24.2202    5.1830   -9.3879 H         1 UNK         0.0806 
    113 H113       24.9157    5.7797   -7.8898 H         1 UNK         0.0806 
    114 H114       24.3512    4.1135   -8.0031 H         1 UNK         0.0806 
    115 H115       26.4861    2.0141   -8.4287 H         1 UNK         0.3000 
    116 H116       25.8858    0.8777  -11.1039 H         1 UNK         0.0850 
    117 H117       25.9887   -1.2913   -9.8434 H         1 UNK         0.0810 
    118 H118       26.3869   -0.4215   -8.3682 H         1 UNK         0.0810 
    119 H119       24.8212   -0.1840   -9.1504 H         1 UNK         0.0810 
    120 H120       28.5693    2.0919   -9.5009 H         1 UNK         0.3040 
    121 H121       30.7631    1.9469   -9.5528 H         1 UNK         0.0766 
    122 H122       30.4936    2.2280  -12.0300 H         1 UNK         0.0812 
    123 H123       30.4968    0.4755  -12.2283 H         1 UNK         0.0812 
    124 H124       31.9265    1.2981  -11.6250 H         1 UNK         0.0812 
    125 H125       29.3741    0.0247   -8.0309 H         1 UNK         0.3205 
    126 H126       30.5032   -2.6164   -8.4193 H         1 UNK         0.0754 
    127 H127       29.1424   -3.1811   -6.4611 H         1 UNK         0.0769 
    128 H128       28.1856   -2.1739   -7.5293 H         1 UNK         0.0769 
    129 H129       28.8951   -1.4866   -6.0696 H         1 UNK         0.0769 
    130 H130       31.7610    0.1874   -6.9419 H         1 UNK         0.2981 
    131 H131       33.0912   -0.8453   -4.6932 H         1 UNK         0.0541 
    132 H132       35.5848   -2.0355   -7.6870 H         1 UNK         0.3459 
    133 H133       33.9961   -1.4078   -8.0532 H         1 UNK         0.3459 
    134 H134       33.9650    1.5259   -6.4117 H         1 UNK         0.0612 
    135 H135       34.4709    1.2240   -4.7769 H         1 UNK         0.0612 
    136 H136       32.3230    3.1994   -2.7711 H         1 UNK         0.0624 
    137 H137       33.5482    1.9647   -2.8530 H         1 UNK         0.0624 
@<TRIPOS>BOND
     1    1    2 1    
     2    1   72 1    
     3    1   73 1    
     4    1   74 1    
     5    2    3 2    
     6    2    4 am   BACKBONE|DICT|INTERRES
     7    4    5 1    
     8    4   75 1    
     9    5    6 1    
    10    5   35 1    
    11    5   76 1    
    12    6    7 1    
    13    6   77 1    
    14    6   78 1    
    15    7    8 1    
    16    8    9 1    
    17    8   79 1    
    18    8   80 1    
    19    9   10 ar   
    20    9   14 ar   
    21   10   11 ar   
    22   10   81 1    
    23   11   12 ar   
    24   11   71 1    
    25   12   13 ar   
    26   12   82 1    
    27   13   14 ar   
    28   13   15 1    
    29   14   83 1    
    30   15   16 1    
    31   15   84 1    
    32   15   85 1    
    33   16   17 1    
    34   17   18 1    
    35   17   86 1    
    36   17   87 1    
    37   18   19 1    
    38   18   37 1    
    39   18   88 1    
    40   19   20 am   BACKBONE|DICT|INTERRES
    41   19   89 1    
    42   20   21 2    
    43   20   22 1    
    44   22   23 1    
    45   22   24 1    
    46   22   90 1    
    47   23   91 1    
    48   23   92 1    
    49   23   93 1    
    50   24   25 am   BACKBONE|DICT|INTERRES
    51   24   94 1    
    52   25   26 2    
    53   25   27 1    
    54   27   28 1    
    55   27   29 1    
    56   27   95 1    
    57   28   96 1    
    58   28   97 1    
    59   28   98 1    
    60   29   30 am   BACKBONE|DICT|INTERRES
    61   29   99 1    
    62   30   31 2    
    63   30   32 1    
    64   32   33 1    
    65   32   34 1    
    66   32  100 1    
    67   33  101 1    
    68   33  102 1    
    69   33  103 1    
    70   34   35 am   BACKBONE|DICT|INTERRES
    71   34  104 1    
    72   35   36 2    
    73   37   38 2    
    74   37   39 am   BACKBONE|DICT|INTERRES
    75   39   40 1    
    76   39  105 1    
    77   40   41 1    
    78   40   42 1    
    79   40  106 1    
    80   41  107 1    
    81   41  108 1    
    82   41  109 1    
    83   42   43 2    
    84   42   44 am   BACKBONE|DICT|INTERRES
    85   44   45 1    
    86   44  110 1    
    87   45   46 1    
    88   45   47 1    
    89   45  111 1    
    90   46  112 1    
    91   46  113 1    
    92   46  114 1    
    93   47   48 2    
    94   47   49 am   BACKBONE|DICT|INTERRES
    95   49   50 1    
    96   49  115 1    
    97   50   51 1    
    98   50   52 1    
    99   50  116 1    
   100   51  117 1    
   101   51  118 1    
   102   51  119 1    
   103   52   53 2    
   104   52   54 am   BACKBONE|DICT|INTERRES
   105   54   55 1    
   106   54  120 1    
   107   55   56 1    
   108   55   57 1    
   109   55  121 1    
   110   56  122 1    
   111   56  123 1    
   112   56  124 1    
   113   57   58 2    
   114   57   59 am   BACKBONE|DICT|INTERRES
   115   59   60 1    
   116   59  125 1    
   117   60   61 1    
   118   60   62 1    
   119   60  126 1    
   120   61  127 1    
   121   61  128 1    
   122   61  129 1    
   123   62   63 2    
   124   62   64 am   BACKBONE|DICT|INTERRES
   125   64   65 1    
   126   64  130 1    
   127   65   66 1    
   128   65   69 1    
   129   65  131 1    
   130   66   67 am   BACKBONE|DICT|INTERRES
   131   66   68 2    
   132   67  132 1    
   133   67  133 1    
   134   69   70 1    
   135   69  134 1    
   136   69  135 1    
   137   70   71 1    
   138   71  136 1    
   139   71  137 1    
@<TRIPOS>SUBSTRUCTURE
     1 UNK         1 GROUP             0       ****    0 ROOT    
