@<TRIPOS>MOLECULE
3R137
137   139    1
SMALL
USER_CHARGES


@<TRIPOS>ATOM
      1 CA         26.6132   -7.1943    2.3246 C.3       0 UNK        -0.2020 
      2 C          26.6646   -6.1844    1.1875 C.2       0 UNK         0.4855 
      3 O          26.0517   -6.4136    0.1442 O.2       0 UNK        -0.5197 
      4 N          27.3926   -5.0764    1.3878 N.am      1 UNK        -0.4892 
      5 CA         27.5682   -3.9584    0.4471 C.3       1 UNK         0.0835 
      6 C6         28.3251   -4.3495   -0.8553 C.3       12 UNK        -0.0855 
      7 S7         29.9032   -5.2310   -0.5606 S.3       12 UNK        -0.2931 
      8 C8         31.1576   -4.0298   -1.1372 C.3       12 UNK         0.0378 
      9 C9         31.2667   -3.8332   -2.6536 C.ar      12 UNK        -0.0802 
     10 C10        32.3749   -3.1404   -3.1571 C.ar      12 UNK        -0.0944 
     11 C11        32.4963   -2.8801   -4.5262 C.ar      12 UNK        -0.0787 
     12 C12        31.4952   -3.3079   -5.3994 C.ar      12 UNK        -0.0862 
     13 C13        30.3712   -3.9763   -4.9130 C.ar      12 UNK        -0.0733 
     14 C14        30.2819   -4.2687   -3.5512 C.ar      12 UNK        -0.0832 
     15 C15        29.2139   -4.3155   -5.8415 C.3       12 UNK         0.0240 
     16 S16        27.7162   -3.3660   -5.4049 S.3       12 UNK        -0.2522 
     17 C17        28.2941   -1.6384   -5.5657 C.3       12 UNK        -0.0967 
     18 CA         27.4853   -0.8583   -6.6224 C.3       5 UNK         0.0660 
     19 N          26.0771   -0.7155   -6.2487 N.am      5 UNK        -0.4015 
     20 C          25.1156   -0.2517   -7.0598 C.2       4 UNK         0.4946 
     21 O          25.3166    0.0830   -8.2288 O.2       4 UNK        -0.5353 
     22 CA         23.7116   -0.0705   -6.4557 C.3       4 UNK         0.0277 
     23 CB         22.8528   -1.3158   -6.7252 C.3       4 UNK        -0.1981 
     24 N          23.7123    0.2201   -5.0166 N.am      4 UNK        -0.4209 
     25 C          24.3391    1.2544   -4.4343 C.2       3 UNK         0.4942 
     26 O          24.9826    2.0984   -5.0567 O.2       3 UNK        -0.5208 
     27 CA         24.2833    1.3429   -2.8996 C.3       3 UNK         0.0250 
     28 CB         23.1496    2.2827   -2.4594 C.3       3 UNK        -0.1990 
     29 N          24.1356    0.0490   -2.2222 N.am      3 UNK        -0.4232 
     30 C          25.0205   -0.9562   -2.2791 C.2       2 UNK         0.4993 
     31 O          26.0413   -0.9397   -2.9720 O.2       2 UNK        -0.5286 
     32 CA         24.6789   -2.2057   -1.4620 C.3       2 UNK         0.0209 
     33 CB         23.8425   -3.1818   -2.3074 C.3       2 UNK        -0.1931 
     34 N          25.9145   -2.8720   -1.0522 N.am      2 UNK        -0.4546 
     35 C          26.2174   -3.2386    0.2006 C.2       1 UNK         0.5154 
     36 O          25.4739   -3.0240    1.1625 O.2       1 UNK        -0.5181 
     37 C          28.1624    0.4871   -6.9555 C.2       5 UNK         0.5014 
     38 O          29.1118    0.4842   -7.7396 O.2       5 UNK        -0.5248 
     39 N          27.6535    1.6150   -6.4330 N.am      6 UNK        -0.4434 
     40 CA         28.1268    2.9577   -6.7888 C.3       6 UNK         0.0363 
     41 CB         27.5360    3.9936   -5.8201 C.3       6 UNK        -0.1936 
     42 C          27.8167    3.3445   -8.2482 C.2       6 UNK         0.5081 
     43 O          28.4991    4.2133   -8.7900 O.2       6 UNK        -0.5248 
     44 N          26.8180    2.6925   -8.8591 N.am      7 UNK        -0.4718 
     45 CA         26.4966    2.8150  -10.2790 C.3       7 UNK         0.0273 
     46 CB         24.9701    2.8832  -10.4539 C.3       7 UNK        -0.1935 
     47 C          27.0827    1.6405  -11.0762 C.2       7 UNK         0.5018 
     48 O          27.6746    1.8688  -12.1313 O.2       7 UNK        -0.5186 
     49 N          26.8913    0.4093  -10.5770 N.am      8 UNK        -0.4240 
     50 CA         27.2489   -0.8270  -11.2780 C.3       8 UNK         0.0235 
     51 CB         26.5254   -2.0183  -10.6289 C.3       8 UNK        -0.2000 
     52 C          28.7614   -1.0915  -11.3665 C.2       8 UNK         0.4941 
     53 O          29.2184   -1.5644  -12.4082 O.2       8 UNK        -0.5273 
     54 N          29.5029   -0.8024  -10.2889 N.am      9 UNK        -0.4262 
     55 CA         30.9554   -0.9862  -10.2083 C.3       9 UNK         0.0264 
     56 CB         31.3069   -1.8047   -8.9536 C.3       9 UNK        -0.1955 
     57 C          31.6852    0.3631  -10.1927 C.2       9 UNK         0.5031 
     58 O          32.7136    0.4938  -10.8576 O.2       9 UNK        -0.5390 
     59 N          31.1423    1.3323   -9.4389 N.am      10 UNK        -0.4204 
     60 CA         31.6526    2.6949   -9.2378 C.3       10 UNK         0.0237 
     61 CB         31.5819    3.5101  -10.5467 C.3       10 UNK        -0.1985 
     62 C          33.0422    2.7301   -8.5696 C.2       10 UNK         0.4970 
     63 O          33.8668    3.5850   -8.8979 O.2       10 UNK        -0.4914 
     64 N          33.2685    1.7993   -7.6342 N.am      11 UNK        -0.4285 
     65 CA         34.5014    1.6631   -6.8435 C.3       11 UNK         0.1007 
     66 C          34.7019    2.7372   -5.7330 C.2       11 UNK         0.5703 
     67 N          33.7139    3.5676   -5.4196 N.am      11 UNK        -0.7361 
     68 O          35.7830    2.8278   -5.1557 O.2       11 UNK        -0.4986 
     69 C69        34.6627    0.2176   -6.3003 C.3       12 UNK        -0.0947 
     70 S70        33.2359   -0.3560   -5.3178 S.3       12 UNK        -0.2240 
     71 C71        33.6813   -2.1007   -5.0712 C.3       12 UNK         0.0194 
     72 H72        26.9997   -8.1563    1.9889 H         1 UNK         0.0906 
     73 H73        27.2026   -6.8740    3.1835 H         1 UNK         0.0906 
     74 H74        25.5841   -7.3364    2.6537 H         1 UNK         0.0906 
     75 H75        27.8473   -4.9499    2.2813 H         1 UNK         0.3140 
     76 H76        28.1877   -3.2273    0.9690 H         1 UNK         0.1085 
     77 H77        27.7021   -4.9938   -1.4787 H         1 UNK         0.0836 
     78 H78        28.5315   -3.4547   -1.4454 H         1 UNK         0.0836 
     79 H79        32.1256   -4.3624   -0.7594 H         1 UNK         0.0731 
     80 H80        30.9624   -3.0642   -0.6686 H         1 UNK         0.0731 
     81 H81        33.1388   -2.7854   -2.4783 H         1 UNK         0.1312 
     82 H82        31.5744   -3.0806   -6.4525 H         1 UNK         0.1406 
     83 H83        29.4076   -4.7977   -3.2065 H         1 UNK         0.1631 
     84 H84        28.9947   -5.3820   -5.7743 H         1 UNK         0.0717 
     85 H85        29.4727   -4.1156   -6.8826 H         1 UNK         0.0717 
     86 H86        28.2279   -1.1555   -4.5890 H         1 UNK         0.0934 
     87 H87        29.3523   -1.6322   -5.8293 H         1 UNK         0.0934 
     88 H88        27.5114   -1.4400   -7.5444 H         1 UNK         0.0739 
     89 H89        25.8470   -0.9478   -5.2903 H         1 UNK         0.3093 
     90 H90        23.2521    0.7815   -6.9610 H         1 UNK         0.0818 
     91 H91        21.8238   -1.1685   -6.3966 H         1 UNK         0.0819 
     92 H92        22.8199   -1.5430   -7.7919 H         1 UNK         0.0819 
     93 H93        23.2466   -2.1969   -6.2166 H         1 UNK         0.0819 
     94 H94        23.2073   -0.4213   -4.4230 H         1 UNK         0.3041 
     95 H95        25.2308    1.7757   -2.5712 H         1 UNK         0.0784 
     96 H96        23.2499    3.2621   -2.9300 H         1 UNK         0.0793 
     97 H97        22.1691    1.8898   -2.7314 H         1 UNK         0.0793 
     98 H98        23.1614    2.4426   -1.3810 H         1 UNK         0.0793 
     99 H99        23.3145   -0.0594   -1.6433 H         1 UNK         0.3024 
    100 H100       24.0986   -1.9000   -0.5882 H         1 UNK         0.1171 
    101 H101       23.5969   -4.0812   -1.7422 H         1 UNK         0.0786 
    102 H102       22.9005   -2.7284   -2.6182 H         1 UNK         0.0786 
    103 H103       24.3721   -3.4903   -3.2102 H         1 UNK         0.0786 
    104 H104       26.5946   -2.9956   -1.7899 H         1 UNK         0.2977 
    105 H105       26.8336    1.5697   -5.8359 H         1 UNK         0.3127 
    106 H106       29.2123    2.9684   -6.6710 H         1 UNK         0.0770 
    107 H107       26.4564    4.0891   -5.9400 H         1 UNK         0.0814 
    108 H108       27.9679    4.9795   -5.9970 H         1 UNK         0.0814 
    109 H109       27.7384    3.7321   -4.7814 H         1 UNK         0.0814 
    110 H110       26.3137    1.9815   -8.3431 H         1 UNK         0.2983 
    111 H111       26.9206    3.7364  -10.6849 H         1 UNK         0.0947 
    112 H112       24.7023    2.9720  -11.5077 H         1 UNK         0.0806 
    113 H113       24.5533    3.7496   -9.9402 H         1 UNK         0.0806 
    114 H114       24.4729    1.9939  -10.0645 H         1 UNK         0.0806 
    115 H115       26.3524    0.3069   -9.7188 H         1 UNK         0.3000 
    116 H116       26.8790   -0.7381  -12.3020 H         1 UNK         0.0850 
    117 H117       26.7226   -2.9396  -11.1787 H         1 UNK         0.0810 
    118 H118       25.4453   -1.8706  -10.6217 H         1 UNK         0.0810 
    119 H119       26.8462   -2.1801   -9.6008 H         1 UNK         0.0810 
    120 H120       29.0575   -0.3866   -9.4780 H         1 UNK         0.3040 
    121 H121       31.3179   -1.5423  -11.0754 H         1 UNK         0.0766 
    122 H122       31.0049   -1.3007   -8.0356 H         1 UNK         0.0812 
    123 H123       32.3825   -1.9753   -8.8896 H         1 UNK         0.0812 
    124 H124       30.8241   -2.7817   -8.9733 H         1 UNK         0.0812 
    125 H125       30.3302    1.0848   -8.8733 H         1 UNK         0.3205 
    126 H126       30.9761    3.1670   -8.5257 H         1 UNK         0.0754 
    127 H127       31.8281    4.5575  -10.3689 H         1 UNK         0.0769 
    128 H128       30.5782    3.4836  -10.9719 H         1 UNK         0.0769 
    129 H129       32.2766    3.1345  -11.2984 H         1 UNK         0.0769 
    130 H130       32.5361    1.1425   -7.4100 H         1 UNK         0.2981 
    131 H131       35.3311    1.8235   -7.5346 H         1 UNK         0.0541 
    132 H132       32.8232    3.5009   -5.8832 H         1 UNK         0.3459 
    133 H133       33.8616    4.2611   -4.7036 H         1 UNK         0.3459 
    134 H134       35.5700    0.1208   -5.7010 H         1 UNK         0.0612 
    135 H135       34.7885   -0.4659   -7.1415 H         1 UNK         0.0612 
    136 H136       34.0004   -2.5365   -6.0193 H         1 UNK         0.0624 
    137 H137       34.5339   -2.1657   -4.3935 H         1 UNK         0.0624 
@<TRIPOS>BOND
     1    1    2 1    
     2    1   72 1    
     3    1   73 1    
     4    1   74 1    
     5    2    3 2    
     6    2    4 am   BACKBONE|DICT|INTERRES
     7    4    5 1    
     8    4   75 1    
     9    5    6 1    
    10    5   35 1    
    11    5   76 1    
    12    6    7 1    
    13    6   77 1    
    14    6   78 1    
    15    7    8 1    
    16    8    9 1    
    17    8   79 1    
    18    8   80 1    
    19    9   10 ar   
    20    9   14 ar   
    21   10   11 ar   
    22   10   81 1    
    23   11   12 ar   
    24   11   71 1    
    25   12   13 ar   
    26   12   82 1    
    27   13   14 ar   
    28   13   15 1    
    29   14   83 1    
    30   15   16 1    
    31   15   84 1    
    32   15   85 1    
    33   16   17 1    
    34   17   18 1    
    35   17   86 1    
    36   17   87 1    
    37   18   19 1    
    38   18   37 1    
    39   18   88 1    
    40   19   20 am   BACKBONE|DICT|INTERRES
    41   19   89 1    
    42   20   21 2    
    43   20   22 1    
    44   22   23 1    
    45   22   24 1    
    46   22   90 1    
    47   23   91 1    
    48   23   92 1    
    49   23   93 1    
    50   24   25 am   BACKBONE|DICT|INTERRES
    51   24   94 1    
    52   25   26 2    
    53   25   27 1    
    54   27   28 1    
    55   27   29 1    
    56   27   95 1    
    57   28   96 1    
    58   28   97 1    
    59   28   98 1    
    60   29   30 am   BACKBONE|DICT|INTERRES
    61   29   99 1    
    62   30   31 2    
    63   30   32 1    
    64   32   33 1    
    65   32   34 1    
    66   32  100 1    
    67   33  101 1    
    68   33  102 1    
    69   33  103 1    
    70   34   35 am   BACKBONE|DICT|INTERRES
    71   34  104 1    
    72   35   36 2    
    73   37   38 2    
    74   37   39 am   BACKBONE|DICT|INTERRES
    75   39   40 1    
    76   39  105 1    
    77   40   41 1    
    78   40   42 1    
    79   40  106 1    
    80   41  107 1    
    81   41  108 1    
    82   41  109 1    
    83   42   43 2    
    84   42   44 am   BACKBONE|DICT|INTERRES
    85   44   45 1    
    86   44  110 1    
    87   45   46 1    
    88   45   47 1    
    89   45  111 1    
    90   46  112 1    
    91   46  113 1    
    92   46  114 1    
    93   47   48 2    
    94   47   49 am   BACKBONE|DICT|INTERRES
    95   49   50 1    
    96   49  115 1    
    97   50   51 1    
    98   50   52 1    
    99   50  116 1    
   100   51  117 1    
   101   51  118 1    
   102   51  119 1    
   103   52   53 2    
   104   52   54 am   BACKBONE|DICT|INTERRES
   105   54   55 1    
   106   54  120 1    
   107   55   56 1    
   108   55   57 1    
   109   55  121 1    
   110   56  122 1    
   111   56  123 1    
   112   56  124 1    
   113   57   58 2    
   114   57   59 am   BACKBONE|DICT|INTERRES
   115   59   60 1    
   116   59  125 1    
   117   60   61 1    
   118   60   62 1    
   119   60  126 1    
   120   61  127 1    
   121   61  128 1    
   122   61  129 1    
   123   62   63 2    
   124   62   64 am   BACKBONE|DICT|INTERRES
   125   64   65 1    
   126   64  130 1    
   127   65   66 1    
   128   65   69 1    
   129   65  131 1    
   130   66   67 am   BACKBONE|DICT|INTERRES
   131   66   68 2    
   132   67  132 1    
   133   67  133 1    
   134   69   70 1    
   135   69  134 1    
   136   69  135 1    
   137   70   71 1    
   138   71  136 1    
   139   71  137 1    
@<TRIPOS>SUBSTRUCTURE
     1 UNK         1 GROUP             0       ****    0 ROOT    
