@<TRIPOS>MOLECULE
3R137
137   139    1
SMALL
USER_CHARGES


@<TRIPOS>ATOM
      1 CA         23.6411   -3.9024   -8.2743 C.3       0 UNK        -0.2020 
      2 C          23.7195   -4.5900   -6.9194 C.2       0 UNK         0.4855 
      3 O          22.8239   -5.3579   -6.5678 O.2       0 UNK        -0.5197 
      4 N          24.7866   -4.3196   -6.1572 N.am      1 UNK        -0.4892 
      5 CA         25.0468   -4.8952   -4.8295 C.3       1 UNK         0.0835 
      6 C6         26.5170   -4.6753   -4.3928 C.3       12 UNK        -0.0855 
      7 S7         27.6928   -5.4751   -5.5330 S.3       12 UNK        -0.2931 
      8 C8         29.1845   -5.5747   -4.4956 C.3       12 UNK         0.0378 
      9 C9         29.8618   -4.2209   -4.3349 C.ar      12 UNK        -0.0802 
     10 C10        30.5739   -3.6690   -5.4047 C.ar      12 UNK        -0.0944 
     11 C11        31.2406   -2.4485   -5.2637 C.ar      12 UNK        -0.0787 
     12 C12        31.2079   -1.7934   -4.0301 C.ar      12 UNK        -0.0862 
     13 C13        30.4745   -2.3156   -2.9613 C.ar      12 UNK        -0.0733 
     14 C14        29.8042   -3.5332   -3.1173 C.ar      12 UNK        -0.0832 
     15 C15        30.4274   -1.5633   -1.6374 C.3       12 UNK         0.0240 
     16 S16        28.8352   -0.7194   -1.3535 S.3       12 UNK        -0.2522 
     17 C17        28.7000    0.4239   -2.7745 C.3       12 UNK        -0.0967 
     18 CA         27.2878    0.3285   -3.4210 C.3       5 UNK         0.0660 
     19 N          26.2132    0.7765   -2.5276 N.am      5 UNK        -0.4015 
     20 C          26.0001    2.0303   -2.0953 C.2       4 UNK         0.4946 
     21 O          26.7460    2.9771   -2.3526 O.2       4 UNK        -0.5353 
     22 CA         24.7389    2.3042   -1.2496 C.3       4 UNK         0.0277 
     23 CB         23.7241    3.1312   -2.0577 C.3       4 UNK        -0.1981 
     24 N          24.0764    1.0914   -0.7674 N.am      4 UNK        -0.4209 
     25 C          24.5034    0.3336    0.2520 C.2       3 UNK         0.4942 
     26 O          25.4517    0.6339    0.9776 O.2       3 UNK        -0.5208 
     27 CA         23.7609   -0.9971    0.4918 C.3       3 UNK         0.0250 
     28 CB         22.7510   -0.8476    1.6416 C.3       3 UNK        -0.1990 
     29 N          23.0715   -1.5399   -0.6893 N.am      3 UNK        -0.4232 
     30 C          23.6684   -1.8735   -1.8423 C.2       2 UNK         0.4993 
     31 O          24.8711   -1.7082   -2.0591 O.2       2 UNK        -0.5286 
     32 CA         22.7611   -2.4130   -2.9608 C.3       2 UNK         0.0209 
     33 CB         22.0402   -1.2537   -3.6700 C.3       2 UNK        -0.1931 
     34 N          23.5371   -3.1582   -3.9533 N.am      2 UNK        -0.4546 
     35 C          24.0901   -4.3608   -3.7427 C.2       1 UNK         0.5154 
     36 O          23.8816   -5.0385   -2.7343 O.2       1 UNK        -0.5181 
     37 C          27.1374    0.9839   -4.8149 C.2       5 UNK         0.5014 
     38 O          26.0104    1.0547   -5.3120 O.2       5 UNK        -0.5248 
     39 N          28.2484    1.4114   -5.4377 N.am      6 UNK        -0.4434 
     40 CA         28.3328    2.0048   -6.7825 C.3       6 UNK         0.0363 
     41 CB         27.6617    3.3940   -6.8154 C.3       6 UNK        -0.1936 
     42 C          27.8311    1.0640   -7.8993 C.2       6 UNK         0.5081 
     43 O          27.2116    1.5143   -8.8644 O.2       6 UNK        -0.5248 
     44 N          28.1059   -0.2368   -7.7384 N.am      7 UNK        -0.4718 
     45 CA         27.6919   -1.3074   -8.6468 C.3       7 UNK         0.0273 
     46 CB         27.7440   -2.6377   -7.8791 C.3       7 UNK        -0.1935 
     47 C          28.5396   -1.4002   -9.9289 C.2       7 UNK         0.5018 
     48 O          28.0990   -2.0351  -10.8882 O.2       7 UNK        -0.5186 
     49 N          29.7336   -0.7970   -9.9268 N.am      8 UNK        -0.4240 
     50 CA         30.6943   -0.8091  -11.0256 C.3       8 UNK         0.0235 
     51 CB         31.5947   -2.0525  -10.8976 C.3       8 UNK        -0.2000 
     52 C          31.5292    0.4738  -10.9775 C.2       8 UNK         0.4941 
     53 O          31.5488    1.1565   -9.9507 O.2       8 UNK        -0.5273 
     54 N          32.2617    0.7535  -12.0641 N.am      9 UNK        -0.4262 
     55 CA         33.1553    1.9134  -12.2071 C.3       9 UNK         0.0264 
     56 CB         33.7194    1.9413  -13.6372 C.3       9 UNK        -0.1955 
     57 C          34.3013    1.9781  -11.1757 C.2       9 UNK         0.5031 
     58 O          34.8450    3.0590  -10.9463 O.2       9 UNK        -0.5390 
     59 N          34.6317    0.8343  -10.5606 N.am      10 UNK        -0.4204 
     60 CA         35.5806    0.7086   -9.4533 C.3       10 UNK         0.0237 
     61 CB         35.9172   -0.7793   -9.2572 C.3       10 UNK        -0.1985 
     62 C          35.0820    1.3194   -8.1278 C.2       10 UNK         0.4970 
     63 O          35.9133    1.5901   -7.2598 O.2       10 UNK        -0.4914 
     64 N          33.7642    1.5097   -7.9814 N.am      11 UNK        -0.4285 
     65 CA         33.1141    2.0407   -6.7730 C.3       11 UNK         0.1007 
     66 C          32.1312    3.2115   -7.0480 C.2       11 UNK         0.5703 
     67 N          31.6008    3.3762   -8.2530 N.am      11 UNK        -0.7361 
     68 O          31.8598    4.0031   -6.1486 O.2       11 UNK        -0.4986 
     69 C69        32.4668    0.9176   -5.9169 C.3       12 UNK        -0.0947 
     70 S70        31.3637   -0.1894   -6.8689 S.3       12 UNK        -0.2240 
     71 C71        31.9943   -1.8443   -6.4420 C.3       12 UNK         0.0194 
     72 H72        23.6119   -4.6459   -9.0705 H         1 UNK         0.0906 
     73 H73        22.7352   -3.3002   -8.3375 H         1 UNK         0.0906 
     74 H74        24.4953   -3.2493   -8.4526 H         1 UNK         0.0906 
     75 H75        25.5097   -3.7121   -6.5121 H         1 UNK         0.3140 
     76 H76        24.8695   -5.9714   -4.8941 H         1 UNK         0.1085 
     77 H77        26.7533   -3.6106   -4.3314 H         1 UNK         0.0836 
     78 H78        26.6797   -5.0827   -3.3927 H         1 UNK         0.0836 
     79 H79        29.8859   -6.2692   -4.9605 H         1 UNK         0.0731 
     80 H80        28.9326   -6.0061   -3.5256 H         1 UNK         0.0731 
     81 H81        30.6065   -4.1963   -6.3485 H         1 UNK         0.1312 
     82 H82        31.7371   -0.8598   -3.9068 H         1 UNK         0.1406 
     83 H83        29.2463   -3.9459   -2.2875 H         1 UNK         0.1631 
     84 H84        31.2314   -0.8276   -1.5819 H         1 UNK         0.0717 
     85 H85        30.6027   -2.2637   -0.8196 H         1 UNK         0.0717 
     86 H86        28.9146    1.4383   -2.4348 H         1 UNK         0.0934 
     87 H87        29.4777    0.1765   -3.4932 H         1 UNK         0.0934 
     88 H88        27.0902   -0.7297   -3.6020 H         1 UNK         0.0739 
     89 H89        25.5648    0.0409   -2.2606 H         1 UNK         0.3093 
     90 H90        25.0505    2.8952   -0.3856 H         1 UNK         0.0818 
     91 H91        24.1670    4.0683   -2.3985 H         1 UNK         0.0819 
     92 H92        23.3795    2.5947   -2.9429 H         1 UNK         0.0819 
     93 H93        22.8514    3.3885   -1.4571 H         1 UNK         0.0819 
     94 H94        23.2775    0.7708   -1.2941 H         1 UNK         0.3041 
     95 H95        24.5135   -1.7295    0.7916 H         1 UNK         0.0784 
     96 H96        23.2381   -0.4733    2.5433 H         1 UNK         0.0793 
     97 H97        21.9521   -0.1490    1.3894 H         1 UNK         0.0793 
     98 H98        22.2946   -1.8040    1.8975 H         1 UNK         0.0793 
     99 H99        22.0761   -1.6873   -0.5969 H         1 UNK         0.3024 
    100 H100       22.0209   -3.0850   -2.5200 H         1 UNK         0.1171 
    101 H101       22.7460   -0.5467   -4.1091 H         1 UNK         0.0786 
    102 H102       21.3932   -1.6192   -4.4679 H         1 UNK         0.0786 
    103 H103       21.4088   -0.6969   -2.9765 H         1 UNK         0.0786 
    104 H104       23.7819   -2.6699   -4.8017 H         1 UNK         0.2977 
    105 H105       29.1304    1.3129   -4.9566 H         1 UNK         0.3127 
    106 H106       29.3930    2.1547   -6.9807 H         1 UNK         0.0770 
    107 H107       26.5822    3.3260   -6.6782 H         1 UNK         0.0814 
    108 H108       27.8377    3.8900   -7.7706 H         1 UNK         0.0814 
    109 H109       28.0598    4.0441   -6.0364 H         1 UNK         0.0814 
    110 H110       28.6460   -0.5132   -6.9308 H         1 UNK         0.2983 
    111 H111       26.6587   -1.1225   -8.9492 H         1 UNK         0.0947 
    112 H112       27.3543   -3.4571   -8.4848 H         1 UNK         0.0806 
    113 H113       27.1514   -2.5939   -6.9660 H         1 UNK         0.0806 
    114 H114       28.7650   -2.8991   -7.5991 H         1 UNK         0.0806 
    115 H115       30.0120   -0.2420   -9.1265 H         1 UNK         0.3000 
    116 H116       30.1611   -0.8317  -11.9786 H         1 UNK         0.0850 
    117 H117       32.3165   -2.1087  -11.7131 H         1 UNK         0.0810 
    118 H118       31.0074   -2.9705  -10.9276 H         1 UNK         0.0810 
    119 H119       32.1549   -2.0476   -9.9614 H         1 UNK         0.0810 
    120 H120       32.1986    0.1364  -12.8618 H         1 UNK         0.3040 
    121 H121       32.5488    2.8099  -12.0618 H         1 UNK         0.0766 
    122 H122       34.3143    1.0533  -13.8543 H         1 UNK         0.0812 
    123 H123       34.3637    2.8091  -13.7865 H         1 UNK         0.0812 
    124 H124       32.9224    2.0031  -14.3785 H         1 UNK         0.0812 
    125 H125       34.1387   -0.0032  -10.8316 H         1 UNK         0.3205 
    126 H126       36.4960    1.2353   -9.7310 H         1 UNK         0.0754 
    127 H127       36.3406   -1.2144  -10.1628 H         1 UNK         0.0769 
    128 H128       35.0351   -1.3604   -8.9838 H         1 UNK         0.0769 
    129 H129       36.6530   -0.9122   -8.4626 H         1 UNK         0.0769 
    130 H130       33.1344    1.2744   -8.7403 H         1 UNK         0.2981 
    131 H131       33.8823    2.4975   -6.1464 H         1 UNK         0.0541 
    132 H132       30.9883    4.1586   -8.4134 H         1 UNK         0.3459 
    133 H133       31.7032    2.6616   -8.9686 H         1 UNK         0.3459 
    134 H134       31.9044    1.3380   -5.0815 H         1 UNK         0.0612 
    135 H135       33.2625    0.3268   -5.4625 H         1 UNK         0.0612 
    136 H136       31.8856   -2.4771   -7.3240 H         1 UNK         0.0624 
    137 H137       33.0624   -1.8091   -6.2251 H         1 UNK         0.0624 
@<TRIPOS>BOND
     1    1    2 1    
     2    1   72 1    
     3    1   73 1    
     4    1   74 1    
     5    2    3 2    
     6    2    4 am   BACKBONE|DICT|INTERRES
     7    4    5 1    
     8    4   75 1    
     9    5    6 1    
    10    5   35 1    
    11    5   76 1    
    12    6    7 1    
    13    6   77 1    
    14    6   78 1    
    15    7    8 1    
    16    8    9 1    
    17    8   79 1    
    18    8   80 1    
    19    9   10 ar   
    20    9   14 ar   
    21   10   11 ar   
    22   10   81 1    
    23   11   12 ar   
    24   11   71 1    
    25   12   13 ar   
    26   12   82 1    
    27   13   14 ar   
    28   13   15 1    
    29   14   83 1    
    30   15   16 1    
    31   15   84 1    
    32   15   85 1    
    33   16   17 1    
    34   17   18 1    
    35   17   86 1    
    36   17   87 1    
    37   18   19 1    
    38   18   37 1    
    39   18   88 1    
    40   19   20 am   BACKBONE|DICT|INTERRES
    41   19   89 1    
    42   20   21 2    
    43   20   22 1    
    44   22   23 1    
    45   22   24 1    
    46   22   90 1    
    47   23   91 1    
    48   23   92 1    
    49   23   93 1    
    50   24   25 am   BACKBONE|DICT|INTERRES
    51   24   94 1    
    52   25   26 2    
    53   25   27 1    
    54   27   28 1    
    55   27   29 1    
    56   27   95 1    
    57   28   96 1    
    58   28   97 1    
    59   28   98 1    
    60   29   30 am   BACKBONE|DICT|INTERRES
    61   29   99 1    
    62   30   31 2    
    63   30   32 1    
    64   32   33 1    
    65   32   34 1    
    66   32  100 1    
    67   33  101 1    
    68   33  102 1    
    69   33  103 1    
    70   34   35 am   BACKBONE|DICT|INTERRES
    71   34  104 1    
    72   35   36 2    
    73   37   38 2    
    74   37   39 am   BACKBONE|DICT|INTERRES
    75   39   40 1    
    76   39  105 1    
    77   40   41 1    
    78   40   42 1    
    79   40  106 1    
    80   41  107 1    
    81   41  108 1    
    82   41  109 1    
    83   42   43 2    
    84   42   44 am   BACKBONE|DICT|INTERRES
    85   44   45 1    
    86   44  110 1    
    87   45   46 1    
    88   45   47 1    
    89   45  111 1    
    90   46  112 1    
    91   46  113 1    
    92   46  114 1    
    93   47   48 2    
    94   47   49 am   BACKBONE|DICT|INTERRES
    95   49   50 1    
    96   49  115 1    
    97   50   51 1    
    98   50   52 1    
    99   50  116 1    
   100   51  117 1    
   101   51  118 1    
   102   51  119 1    
   103   52   53 2    
   104   52   54 am   BACKBONE|DICT|INTERRES
   105   54   55 1    
   106   54  120 1    
   107   55   56 1    
   108   55   57 1    
   109   55  121 1    
   110   56  122 1    
   111   56  123 1    
   112   56  124 1    
   113   57   58 2    
   114   57   59 am   BACKBONE|DICT|INTERRES
   115   59   60 1    
   116   59  125 1    
   117   60   61 1    
   118   60   62 1    
   119   60  126 1    
   120   61  127 1    
   121   61  128 1    
   122   61  129 1    
   123   62   63 2    
   124   62   64 am   BACKBONE|DICT|INTERRES
   125   64   65 1    
   126   64  130 1    
   127   65   66 1    
   128   65   69 1    
   129   65  131 1    
   130   66   67 am   BACKBONE|DICT|INTERRES
   131   66   68 2    
   132   67  132 1    
   133   67  133 1    
   134   69   70 1    
   135   69  134 1    
   136   69  135 1    
   137   70   71 1    
   138   71  136 1    
   139   71  137 1    
@<TRIPOS>SUBSTRUCTURE
     1 UNK         1 GROUP             0       ****    0 ROOT    
