@<TRIPOS>MOLECULE
3R137
137   139    1
SMALL
USER_CHARGES


@<TRIPOS>ATOM
      1 CA         28.0458   -5.2971   -2.7725 C.3       0 UNK        -0.2020 
      2 C          27.5895   -4.2703   -1.7499 C.2       0 UNK         0.4855 
      3 O          26.5037   -4.4101   -1.1833 O.2       0 UNK        -0.5197 
      4 N          28.4144   -3.2460   -1.4964 N.am      1 UNK        -0.4892 
      5 CA         28.2422   -2.2333   -0.4448 C.3       1 UNK         0.0835 
      6 C6         29.5907   -1.5693   -0.0423 C.3       12 UNK        -0.0855 
      7 S7         30.9382   -2.7793    0.2380 S.3       12 UNK        -0.2931 
      8 C8         32.2345   -2.2507   -0.9386 C.3       12 UNK         0.0378 
      9 C9         31.7146   -2.0749   -2.3604 C.ar      12 UNK        -0.0802 
     10 C10        31.3571   -3.1839   -3.1325 C.ar      12 UNK        -0.0944 
     11 C11        30.8231   -3.0151   -4.4151 C.ar      12 UNK        -0.0787 
     12 C12        30.6549   -1.7224   -4.9244 C.ar      12 UNK        -0.0862 
     13 C13        31.0434   -0.6073   -4.1740 C.ar      12 UNK        -0.0733 
     14 C14        31.5791   -0.7919   -2.8981 C.ar      12 UNK        -0.0832 
     15 C15        30.8905    0.8000   -4.7345 C.3       12 UNK         0.0240 
     16 S16        29.6582    1.7943   -3.8294 S.3       12 UNK        -0.2522 
     17 C17        28.1328    0.8522   -4.1467 C.3       12 UNK        -0.0967 
     18 CA         27.6412    1.0078   -5.6084 C.3       5 UNK         0.0660 
     19 N          27.2401   -0.2790   -6.1729 N.am      5 UNK        -0.4015 
     20 C          26.9137   -0.5230   -7.4460 C.2       4 UNK         0.4946 
     21 O          26.8981    0.3454   -8.3195 O.2       4 UNK        -0.5353 
     22 CA         26.4761   -1.9603   -7.7937 C.3       4 UNK         0.0277 
     23 CB         27.6944   -2.8718   -8.0414 C.3       4 UNK        -0.1981 
     24 N          25.5483   -2.5489   -6.8111 N.am      4 UNK        -0.4209 
     25 C          25.7944   -2.8755   -5.5339 C.2       3 UNK         0.4942 
     26 O          26.9067   -2.8094   -5.0054 O.2       3 UNK        -0.5208 
     27 CA         24.5814   -3.2781   -4.6820 C.3       3 UNK         0.0250 
     28 CB         24.4790   -4.8061   -4.5568 C.3       3 UNK        -0.1990 
     29 N          24.6563   -2.6812   -3.3459 N.am      3 UNK        -0.4232 
     30 C          24.6400   -1.3612   -3.0980 C.2       2 UNK         0.4993 
     31 O          24.5131   -0.5029   -3.9723 O.2       2 UNK        -0.5286 
     32 CA         24.8276   -0.9264   -1.6385 C.3       2 UNK         0.0209 
     33 CB         23.5411   -1.1574   -0.8289 C.3       2 UNK        -0.1931 
     34 N          25.9326   -1.6698   -1.0344 N.am      2 UNK        -0.4546 
     35 C          27.1663   -1.1942   -0.8385 C.2       1 UNK         0.5154 
     36 O          27.4671   -0.0087   -0.9851 O.2       1 UNK        -0.5181 
     37 C          26.5615    2.0987   -5.7544 C.2       5 UNK         0.5014 
     38 O          26.9036    3.2464   -6.0391 O.2       5 UNK        -0.5248 
     39 N          25.2782    1.7224   -5.6430 N.am      6 UNK        -0.4434 
     40 CA         24.1247    2.5860   -5.9258 C.3       6 UNK         0.0363 
     41 CB         22.8319    1.8468   -5.5456 C.3       6 UNK        -0.1936 
     42 C          24.0471    3.0839   -7.3846 C.2       6 UNK         0.5081 
     43 O          23.4397    4.1266   -7.6278 O.2       6 UNK        -0.5248 
     44 N          24.6726    2.3552   -8.3198 N.am      7 UNK        -0.4718 
     45 CA         24.8277    2.7352   -9.7270 C.3       7 UNK         0.0273 
     46 CB         24.5661    1.4964  -10.6033 C.3       7 UNK        -0.1935 
     47 C          26.2201    3.3346  -10.0140 C.2       7 UNK         0.5018 
     48 O          26.5435    3.5567  -11.1815 O.2       7 UNK        -0.5186 
     49 N          27.0195    3.5733   -8.9609 N.am      8 UNK        -0.4240 
     50 CA         28.3966    4.0812   -8.9632 C.3       8 UNK         0.0235 
     51 CB         28.4619    5.5111   -9.5421 C.3       8 UNK        -0.2000 
     52 C          29.4224    3.1287   -9.6105 C.2       8 UNK         0.4941 
     53 O          30.5004    3.5819  -10.0009 O.2       8 UNK        -0.5273 
     54 N          29.1020    1.8304   -9.6985 N.am      9 UNK        -0.4262 
     55 CA         29.9997    0.7998  -10.2120 C.3       9 UNK         0.0264 
     56 CB         29.1730   -0.2896  -10.9161 C.3       9 UNK        -0.1955 
     57 C          30.8292    0.2404   -9.0489 C.2       9 UNK         0.5031 
     58 O          30.3264   -0.5816   -8.2824 O.2       9 UNK        -0.5390 
     59 N          32.0709    0.7229   -8.9146 N.am      10 UNK        -0.4204 
     60 CA         33.0334    0.2632   -7.9127 C.3       10 UNK         0.0237 
     61 CB         34.1992    1.2614   -7.8218 C.3       10 UNK        -0.1985 
     62 C          33.5363   -1.1499   -8.2431 C.2       10 UNK         0.4970 
     63 O          34.0943   -1.3548   -9.3237 O.2       10 UNK        -0.4914 
     64 N          33.3248   -2.0875   -7.3151 N.am      11 UNK        -0.4285 
     65 CA         33.7544   -3.4869   -7.4327 C.3       11 UNK         0.1007 
     66 C          35.2780   -3.6593   -7.1900 C.2       11 UNK         0.5703 
     67 N          35.8830   -4.6893   -7.7661 N.am      11 UNK        -0.7361 
     68 O          35.9092   -2.8938   -6.4627 O.2       11 UNK        -0.4986 
     69 C69        32.9286   -4.4149   -6.5054 C.3       12 UNK        -0.0947 
     70 S70        31.1448   -4.3243   -6.8818 S.3       12 UNK        -0.2240 
     71 C71        30.3940   -4.2340   -5.2252 C.3       12 UNK         0.0194 
     72 H72        27.6211   -6.2744   -2.5447 H         1 UNK         0.0906 
     73 H73        27.7212   -5.0101   -3.7707 H         1 UNK         0.0906 
     74 H74        29.1301   -5.3980   -2.7716 H         1 UNK         0.0906 
     75 H75        29.2739   -3.1592   -2.0222 H         1 UNK         0.3140 
     76 H76        27.8661   -2.7457    0.4438 H         1 UNK         0.1085 
     77 H77        29.4585   -0.9973    0.8778 H         1 UNK         0.0836 
     78 H78        29.9019   -0.8407   -0.7901 H         1 UNK         0.0836 
     79 H79        33.0356   -2.9912   -0.9374 H         1 UNK         0.0731 
     80 H80        32.6796   -1.3233   -0.5746 H         1 UNK         0.0731 
     81 H81        31.4765   -4.1772   -2.7211 H         1 UNK         0.1312 
     82 H82        30.2246   -1.5894   -5.9079 H         1 UNK         0.1406 
     83 H83        31.8628    0.0725   -2.3126 H         1 UNK         0.1631 
     84 H84        30.6183    0.7670   -5.7892 H         1 UNK         0.0717 
     85 H85        31.8539    1.3093   -4.6852 H         1 UNK         0.0717 
     86 H86        27.3726    1.1645   -3.4276 H         1 UNK         0.0934 
     87 H87        28.3301   -0.1927   -3.9003 H         1 UNK         0.0934 
     88 H88        28.4712    1.3348   -6.2369 H         1 UNK         0.0739 
     89 H89        27.2177   -1.0756   -5.5396 H         1 UNK         0.3093 
     90 H90        25.9186   -1.8985   -8.7297 H         1 UNK         0.0818 
     91 H91        28.2925   -2.5118   -8.8775 H         1 UNK         0.0819 
     92 H92        28.3580   -2.9093   -7.1782 H         1 UNK         0.0819 
     93 H93        27.3904   -3.8916   -8.2761 H         1 UNK         0.0819 
     94 H94        24.5925   -2.6248   -7.1321 H         1 UNK         0.3041 
     95 H95        23.6730   -2.9060   -5.1607 H         1 UNK         0.0784 
     96 H96        24.4261   -5.2773   -5.5392 H         1 UNK         0.0793 
     97 H97        25.3391   -5.2293   -4.0381 H         1 UNK         0.0793 
     98 H98        23.5828   -5.0991   -4.0096 H         1 UNK         0.0793 
     99 H99        24.8174   -3.3195   -2.5805 H         1 UNK         0.3024 
    100 H100       25.0434    0.1448   -1.6380 H         1 UNK         0.1171 
    101 H101       23.6507   -0.7972    0.1942 H         1 UNK         0.0786 
    102 H102       22.7006   -0.6214   -1.2723 H         1 UNK         0.0786 
    103 H103       23.2697   -2.2127   -0.7836 H         1 UNK         0.0786 
    104 H104       25.8239   -2.6765   -0.9385 H         1 UNK         0.2977 
    105 H105       25.0688    0.7843   -5.3082 H         1 UNK         0.3127 
    106 H106       24.2122    3.4692   -5.2895 H         1 UNK         0.0770 
    107 H107       22.7200    0.9173   -6.1053 H         1 UNK         0.0814 
    108 H108       21.9535    2.4605   -5.7499 H         1 UNK         0.0814 
    109 H109       22.8131    1.6027   -4.4833 H         1 UNK         0.0814 
    110 H110       25.1899    1.5307   -8.0351 H         1 UNK         0.2983 
    111 H111       24.0927    3.4979   -9.9928 H         1 UNK         0.0947 
    112 H112       25.3112    0.7177  -10.4374 H         1 UNK         0.0806 
    113 H113       24.5954    1.7525  -11.6631 H         1 UNK         0.0806 
    114 H114       23.5835    1.0693  -10.4030 H         1 UNK         0.0806 
    115 H115       26.6583    3.3583   -8.0371 H         1 UNK         0.3000 
    116 H116       28.6864    4.1459   -7.9135 H         1 UNK         0.0850 
    117 H117       29.4481    5.9511   -9.3892 H         1 UNK         0.0810 
    118 H118       27.7388    6.1682   -9.0590 H         1 UNK         0.0810 
    119 H119       28.2654    5.5243  -10.6144 H         1 UNK         0.0810 
    120 H120       28.2300    1.5006   -9.2934 H         1 UNK         0.3040 
    121 H121       30.6769    1.2242  -10.9565 H         1 UNK         0.0766 
    122 H122       28.6825    0.1047  -11.8061 H         1 UNK         0.0812 
    123 H123       28.3984   -0.6954  -10.2677 H         1 UNK         0.0812 
    124 H124       29.8061   -1.1196  -11.2320 H         1 UNK         0.0812 
    125 H125       32.4005    1.4060   -9.5820 H         1 UNK         0.3205 
    126 H126       32.5380    0.2400   -6.9427 H         1 UNK         0.0754 
    127 H127       34.9249    0.9442   -7.0716 H         1 UNK         0.0769 
    128 H128       33.8502    2.2538   -7.5352 H         1 UNK         0.0769 
    129 H129       34.7301    1.3525   -8.7704 H         1 UNK         0.0769 
    130 H130       32.8569   -1.8445   -6.4550 H         1 UNK         0.2981 
    131 H131       33.5595   -3.7986   -8.4613 H         1 UNK         0.0541 
    132 H132       36.8697   -4.8266   -7.6112 H         1 UNK         0.3459 
    133 H133       35.3750   -5.3300   -8.3560 H         1 UNK         0.3459 
    134 H134       33.2381   -5.4544   -6.6266 H         1 UNK         0.0612 
    135 H135       33.1057   -4.1636   -5.4585 H         1 UNK         0.0612 
    136 H136       30.6293   -5.1575   -4.6948 H         1 UNK         0.0624 
    137 H137       29.3108   -4.2101   -5.3421 H         1 UNK         0.0624 
@<TRIPOS>BOND
     1    1    2 1    
     2    1   72 1    
     3    1   73 1    
     4    1   74 1    
     5    2    3 2    
     6    2    4 am   BACKBONE|DICT|INTERRES
     7    4    5 1    
     8    4   75 1    
     9    5    6 1    
    10    5   35 1    
    11    5   76 1    
    12    6    7 1    
    13    6   77 1    
    14    6   78 1    
    15    7    8 1    
    16    8    9 1    
    17    8   79 1    
    18    8   80 1    
    19    9   10 ar   
    20    9   14 ar   
    21   10   11 ar   
    22   10   81 1    
    23   11   12 ar   
    24   11   71 1    
    25   12   13 ar   
    26   12   82 1    
    27   13   14 ar   
    28   13   15 1    
    29   14   83 1    
    30   15   16 1    
    31   15   84 1    
    32   15   85 1    
    33   16   17 1    
    34   17   18 1    
    35   17   86 1    
    36   17   87 1    
    37   18   19 1    
    38   18   37 1    
    39   18   88 1    
    40   19   20 am   BACKBONE|DICT|INTERRES
    41   19   89 1    
    42   20   21 2    
    43   20   22 1    
    44   22   23 1    
    45   22   24 1    
    46   22   90 1    
    47   23   91 1    
    48   23   92 1    
    49   23   93 1    
    50   24   25 am   BACKBONE|DICT|INTERRES
    51   24   94 1    
    52   25   26 2    
    53   25   27 1    
    54   27   28 1    
    55   27   29 1    
    56   27   95 1    
    57   28   96 1    
    58   28   97 1    
    59   28   98 1    
    60   29   30 am   BACKBONE|DICT|INTERRES
    61   29   99 1    
    62   30   31 2    
    63   30   32 1    
    64   32   33 1    
    65   32   34 1    
    66   32  100 1    
    67   33  101 1    
    68   33  102 1    
    69   33  103 1    
    70   34   35 am   BACKBONE|DICT|INTERRES
    71   34  104 1    
    72   35   36 2    
    73   37   38 2    
    74   37   39 am   BACKBONE|DICT|INTERRES
    75   39   40 1    
    76   39  105 1    
    77   40   41 1    
    78   40   42 1    
    79   40  106 1    
    80   41  107 1    
    81   41  108 1    
    82   41  109 1    
    83   42   43 2    
    84   42   44 am   BACKBONE|DICT|INTERRES
    85   44   45 1    
    86   44  110 1    
    87   45   46 1    
    88   45   47 1    
    89   45  111 1    
    90   46  112 1    
    91   46  113 1    
    92   46  114 1    
    93   47   48 2    
    94   47   49 am   BACKBONE|DICT|INTERRES
    95   49   50 1    
    96   49  115 1    
    97   50   51 1    
    98   50   52 1    
    99   50  116 1    
   100   51  117 1    
   101   51  118 1    
   102   51  119 1    
   103   52   53 2    
   104   52   54 am   BACKBONE|DICT|INTERRES
   105   54   55 1    
   106   54  120 1    
   107   55   56 1    
   108   55   57 1    
   109   55  121 1    
   110   56  122 1    
   111   56  123 1    
   112   56  124 1    
   113   57   58 2    
   114   57   59 am   BACKBONE|DICT|INTERRES
   115   59   60 1    
   116   59  125 1    
   117   60   61 1    
   118   60   62 1    
   119   60  126 1    
   120   61  127 1    
   121   61  128 1    
   122   61  129 1    
   123   62   63 2    
   124   62   64 am   BACKBONE|DICT|INTERRES
   125   64   65 1    
   126   64  130 1    
   127   65   66 1    
   128   65   69 1    
   129   65  131 1    
   130   66   67 am   BACKBONE|DICT|INTERRES
   131   66   68 2    
   132   67  132 1    
   133   67  133 1    
   134   69   70 1    
   135   69  134 1    
   136   69  135 1    
   137   70   71 1    
   138   71  136 1    
   139   71  137 1    
@<TRIPOS>SUBSTRUCTURE
     1 UNK         1 GROUP             0       ****    0 ROOT    
