@<TRIPOS>MOLECULE
3R137
137   139    1
SMALL
USER_CHARGES


@<TRIPOS>ATOM
      1 CA         25.6512   -7.4338    0.4929 C.3       0 UNK        -0.2020 
      2 C          26.2086   -6.1781   -0.1602 C.2       0 UNK         0.4855 
      3 O          26.0730   -6.0091   -1.3726 O.2       0 UNK        -0.5197 
      4 N          26.8277   -5.2927    0.6348 N.am      1 UNK        -0.4892 
      5 CA         27.4405   -4.0065    0.2571 C.3       1 UNK         0.0835 
      6 C6         28.5342   -4.1329   -0.8448 C.3       12 UNK        -0.0855 
      7 S7         30.1340   -3.4015   -0.3537 S.3       12 UNK        -0.2931 
      8 C8         31.3150   -4.4736   -1.2441 C.3       12 UNK         0.0378 
      9 C9         31.3998   -4.1132   -2.7219 C.ar      12 UNK        -0.0802 
     10 C10        32.4849   -3.3765   -3.2114 C.ar      12 UNK        -0.0944 
     11 C11        32.5467   -3.0208   -4.5630 C.ar      12 UNK        -0.0787 
     12 C12        31.5087   -3.3914   -5.4209 C.ar      12 UNK        -0.0862 
     13 C13        30.4078   -4.1017   -4.9381 C.ar      12 UNK        -0.0733 
     14 C14        30.3799   -4.4957   -3.5991 C.ar      12 UNK        -0.0832 
     15 C15        29.2177   -4.3860   -5.8435 C.3       12 UNK         0.0240 
     16 S16        27.7393   -3.4545   -5.3125 S.3       12 UNK        -0.2522 
     17 C17        28.3033   -1.7194   -5.4357 C.3       12 UNK        -0.0967 
     18 CA         27.5100   -0.9306   -6.4990 C.3       5 UNK         0.0660 
     19 N          26.0975   -0.7824   -6.1399 N.am      5 UNK        -0.4015 
     20 C          25.1522   -0.2876   -6.9527 C.2       4 UNK         0.4946 
     21 O          25.3714    0.0608   -8.1141 O.2       4 UNK        -0.5353 
     22 CA         23.7452   -0.0825   -6.3623 C.3       4 UNK         0.0277 
     23 CB         22.8600   -1.3018   -6.6638 C.3       4 UNK        -0.1981 
     24 N          23.7325    0.1840   -4.9191 N.am      4 UNK        -0.4209 
     25 C          24.3912    1.1782   -4.3032 C.2       3 UNK         0.4942 
     26 O          25.0685    2.0160   -4.8974 O.2       3 UNK        -0.5208 
     27 CA         24.3320    1.2242   -2.7660 C.3       3 UNK         0.0250 
     28 CB         23.2776    2.2420   -2.3024 C.3       3 UNK        -0.1990 
     29 N          24.0718   -0.0713   -2.1265 N.am      3 UNK        -0.4232 
     30 C          24.8547   -1.1557   -2.2242 C.2       2 UNK         0.4993 
     31 O          25.8670   -1.2133   -2.9271 O.2       2 UNK        -0.5286 
     32 CA         24.3733   -2.4004   -1.4614 C.3       2 UNK         0.0209 
     33 CB         23.4422   -3.2400   -2.3522 C.3       2 UNK        -0.1931 
     34 N          25.4758   -3.2475   -1.0073 N.am      2 UNK        -0.4546 
     35 C          26.3892   -2.9258   -0.0827 C.2       1 UNK         0.5154 
     36 O          26.3958   -1.8544    0.5265 O.2       1 UNK        -0.5181 
     37 C          28.1981    0.4140   -6.8177 C.2       5 UNK         0.5014 
     38 O          29.1400    0.4164   -7.6114 O.2       5 UNK        -0.5248 
     39 N          27.7047    1.5375   -6.2711 N.am      6 UNK        -0.4434 
     40 CA         28.1921    2.8818   -6.6002 C.3       6 UNK         0.0363 
     41 CB         27.6386    3.8999   -5.5911 C.3       6 UNK        -0.1936 
     42 C          27.8606    3.3151   -8.0417 C.2       6 UNK         0.5081 
     43 O          28.5274    4.2099   -8.5599 O.2       6 UNK        -0.5248 
     44 N          26.8609    2.6764   -8.6648 N.am      7 UNK        -0.4718 
     45 CA         26.5229    2.8472  -10.0761 C.3       7 UNK         0.0273 
     46 CB         24.9944    2.9193  -10.2314 C.3       7 UNK        -0.1935 
     47 C          27.1013    1.7010  -10.9189 C.2       7 UNK         0.5018 
     48 O          27.6773    1.9650  -11.9744 O.2       7 UNK        -0.5186 
     49 N          26.9225    0.4543  -10.4551 N.am      8 UNK        -0.4240 
     50 CA         27.2848   -0.7596  -11.1913 C.3       8 UNK         0.0235 
     51 CB         26.5847   -1.9750  -10.5617 C.3       8 UNK        -0.2000 
     52 C          28.7993   -1.0013  -11.3023 C.2       8 UNK         0.4941 
     53 O          29.2565   -1.4125  -12.3699 O.2       8 UNK        -0.5273 
     54 N          29.5421   -0.7608  -10.2137 N.am      9 UNK        -0.4262 
     55 CA         30.9968   -0.9306  -10.1492 C.3       9 UNK         0.0264 
     56 CB         31.3652   -1.7886   -8.9267 C.3       9 UNK        -0.1955 
     57 C          31.7112    0.4253  -10.0877 C.2       9 UNK         0.5031 
     58 O          32.7369    0.5904  -10.7492 O.2       9 UNK        -0.5390 
     59 N          31.1594    1.3613   -9.2991 N.am      10 UNK        -0.4204 
     60 CA         31.6582    2.7208   -9.0519 C.3       10 UNK         0.0237 
     61 CB         31.5808    3.5799  -10.3320 C.3       10 UNK        -0.1985 
     62 C          33.0466    2.7453   -8.3813 C.2       10 UNK         0.4970 
     63 O          33.8645    3.6173   -8.6801 O.2       10 UNK        -0.4914 
     64 N          33.2789    1.7866   -7.4763 N.am      11 UNK        -0.4285 
     65 CA         34.5109    1.6363   -6.6869 C.3       11 UNK         0.1007 
     66 C          34.6950    2.6718   -5.5374 C.2       11 UNK         0.5703 
     67 N          33.6973    3.4809   -5.1999 N.am      11 UNK        -0.7361 
     68 O          35.7723    2.7522   -4.9515 O.2       11 UNK        -0.4986 
     69 C69        34.6878    0.1741   -6.1964 C.3       12 UNK        -0.0947 
     70 S70        33.2662   -0.4539   -5.2397 S.3       12 UNK        -0.2240 
     71 C71        33.7125   -2.2103   -5.1043 C.3       12 UNK         0.0194 
     72 H72        26.1058   -8.3195    0.0497 H         1 UNK         0.0906 
     73 H73        25.8411   -7.4563    1.5659 H         1 UNK         0.0906 
     74 H74        24.5741   -7.4901    0.3376 H         1 UNK         0.0906 
     75 H75        26.8723   -5.4941    1.6252 H         1 UNK         0.3140 
     76 H76        27.9194   -3.6647    1.1767 H         1 UNK         0.1085 
     77 H77        28.7111   -5.1851   -1.0725 H         1 UNK         0.0836 
     78 H78        28.2200   -3.6819   -1.7898 H         1 UNK         0.0836 
     79 H79        32.2957   -4.3691   -0.7766 H         1 UNK         0.0731 
     80 H80        31.0381   -5.5226   -1.1271 H         1 UNK         0.0731 
     81 H81        33.2756   -3.0704   -2.5400 H         1 UNK         0.1312 
     82 H82        31.5437   -3.0915   -6.4577 H         1 UNK         0.1406 
     83 H83        29.5319   -5.0580   -3.2365 H         1 UNK         0.1631 
     84 H84        29.4441   -4.1352   -6.8812 H         1 UNK         0.0717 
     85 H85        28.9937   -5.4535   -5.8237 H         1 UNK         0.0717 
     86 H86        28.2064   -1.2528   -4.4534 H         1 UNK         0.0934 
     87 H87        29.3680   -1.6988   -5.6700 H         1 UNK         0.0934 
     88 H88        27.5429   -1.5076   -7.4239 H         1 UNK         0.0739 
     89 H89        25.8526   -1.0329   -5.1888 H         1 UNK         0.3093 
     90 H90        23.3131    0.7890   -6.8583 H         1 UNK         0.0818 
     91 H91        21.8304   -1.1344   -6.3470 H         1 UNK         0.0819 
     92 H92        22.8367   -1.5112   -7.7344 H         1 UNK         0.0819 
     93 H93        23.2251   -2.2001   -6.1640 H         1 UNK         0.0819 
     94 H94        23.2019   -0.4545   -4.3453 H         1 UNK         0.3041 
     95 H95        25.3104    1.5653   -2.4208 H         1 UNK         0.0784 
     96 H96        23.4625    3.2234   -2.7422 H         1 UNK         0.0793 
     97 H97        22.2698    1.9407   -2.5910 H         1 UNK         0.0793 
     98 H98        23.2949    2.3679   -1.2195 H         1 UNK         0.0793 
     99 H99        23.2466   -0.1214   -1.5457 H         1 UNK         0.3024 
    100 H100       23.8210   -2.0762   -0.5763 H         1 UNK         0.1171 
    101 H101       22.5779   -2.6602   -2.6790 H         1 UNK         0.0786 
    102 H102       23.9559   -3.5950   -3.2471 H         1 UNK         0.0786 
    103 H103       23.0617   -4.1112   -1.8182 H         1 UNK         0.0786 
    104 H104       25.5621   -4.1666   -1.4334 H         1 UNK         0.2977 
    105 H105       26.8859    1.4907   -5.6719 H         1 UNK         0.3127 
    106 H106       29.2797    2.8726   -6.5033 H         1 UNK         0.0770 
    107 H107       26.5595    4.0208   -5.6898 H         1 UNK         0.0814 
    108 H108       28.0876    4.8818   -5.7462 H         1 UNK         0.0814 
    109 H109       27.8528    3.6036   -4.5642 H         1 UNK         0.0814 
    110 H110       26.3685    1.9424   -8.1697 H         1 UNK         0.2983 
    111 H111       26.9413    3.7822  -10.4557 H         1 UNK         0.0947 
    112 H112       24.7149    3.0451  -11.2783 H         1 UNK         0.0806 
    113 H113       24.5825    3.7662   -9.6826 H         1 UNK         0.0806 
    114 H114       24.5025    2.0160   -9.8686 H         1 UNK         0.0806 
    115 H115       26.3943    0.3237   -9.5939 H         1 UNK         0.3000 
    116 H116       26.9011   -0.6500  -12.2082 H         1 UNK         0.0850 
    117 H117       26.7893   -2.8814  -11.1332 H         1 UNK         0.0810 
    118 H118       25.5026   -1.8428  -10.5408 H         1 UNK         0.0810 
    119 H119       26.9179   -2.1538   -9.5403 H         1 UNK         0.0810 
    120 H120       29.0953   -0.3948   -9.3797 H         1 UNK         0.3040 
    121 H121       31.3595   -1.4513  -11.0380 H         1 UNK         0.0766 
    122 H122       30.8913   -2.7690   -8.9766 H         1 UNK         0.0812 
    123 H123       31.0648   -1.3184   -7.9905 H         1 UNK         0.0812 
    124 H124       32.4428   -1.9509   -8.8758 H         1 UNK         0.0812 
    125 H125       30.3512    1.0855   -8.7418 H         1 UNK         0.3205 
    126 H126       30.9789    3.1631   -8.3240 H         1 UNK         0.0754 
    127 H127       31.8176    4.6228  -10.1180 H         1 UNK         0.0769 
    128 H128       30.5774    3.5594  -10.7585 H         1 UNK         0.0769 
    129 H129       32.2791    3.2368  -11.0959 H         1 UNK         0.0769 
    130 H130       32.5518    1.1165   -7.2749 H         1 UNK         0.2981 
    131 H131       35.3409    1.8316   -7.3686 H         1 UNK         0.0541 
    132 H132       32.8098    3.4226   -5.6705 H         1 UNK         0.3459 
    133 H133       33.8346    4.1497   -4.4587 H         1 UNK         0.3459 
    134 H134       35.5947    0.0662   -5.5984 H         1 UNK         0.0612 
    135 H135       34.8249   -0.4757   -7.0622 H         1 UNK         0.0612 
    136 H136       34.5879   -2.3132   -4.4612 H         1 UNK         0.0624 
    137 H137       33.9980   -2.5932   -6.0854 H         1 UNK         0.0624 
@<TRIPOS>BOND
     1    1    2 1    
     2    1   72 1    
     3    1   73 1    
     4    1   74 1    
     5    2    3 2    
     6    2    4 am   BACKBONE|DICT|INTERRES
     7    4    5 1    
     8    4   75 1    
     9    5    6 1    
    10    5   35 1    
    11    5   76 1    
    12    6    7 1    
    13    6   77 1    
    14    6   78 1    
    15    7    8 1    
    16    8    9 1    
    17    8   79 1    
    18    8   80 1    
    19    9   10 ar   
    20    9   14 ar   
    21   10   11 ar   
    22   10   81 1    
    23   11   12 ar   
    24   11   71 1    
    25   12   13 ar   
    26   12   82 1    
    27   13   14 ar   
    28   13   15 1    
    29   14   83 1    
    30   15   16 1    
    31   15   84 1    
    32   15   85 1    
    33   16   17 1    
    34   17   18 1    
    35   17   86 1    
    36   17   87 1    
    37   18   19 1    
    38   18   37 1    
    39   18   88 1    
    40   19   20 am   BACKBONE|DICT|INTERRES
    41   19   89 1    
    42   20   21 2    
    43   20   22 1    
    44   22   23 1    
    45   22   24 1    
    46   22   90 1    
    47   23   91 1    
    48   23   92 1    
    49   23   93 1    
    50   24   25 am   BACKBONE|DICT|INTERRES
    51   24   94 1    
    52   25   26 2    
    53   25   27 1    
    54   27   28 1    
    55   27   29 1    
    56   27   95 1    
    57   28   96 1    
    58   28   97 1    
    59   28   98 1    
    60   29   30 am   BACKBONE|DICT|INTERRES
    61   29   99 1    
    62   30   31 2    
    63   30   32 1    
    64   32   33 1    
    65   32   34 1    
    66   32  100 1    
    67   33  101 1    
    68   33  102 1    
    69   33  103 1    
    70   34   35 am   BACKBONE|DICT|INTERRES
    71   34  104 1    
    72   35   36 2    
    73   37   38 2    
    74   37   39 am   BACKBONE|DICT|INTERRES
    75   39   40 1    
    76   39  105 1    
    77   40   41 1    
    78   40   42 1    
    79   40  106 1    
    80   41  107 1    
    81   41  108 1    
    82   41  109 1    
    83   42   43 2    
    84   42   44 am   BACKBONE|DICT|INTERRES
    85   44   45 1    
    86   44  110 1    
    87   45   46 1    
    88   45   47 1    
    89   45  111 1    
    90   46  112 1    
    91   46  113 1    
    92   46  114 1    
    93   47   48 2    
    94   47   49 am   BACKBONE|DICT|INTERRES
    95   49   50 1    
    96   49  115 1    
    97   50   51 1    
    98   50   52 1    
    99   50  116 1    
   100   51  117 1    
   101   51  118 1    
   102   51  119 1    
   103   52   53 2    
   104   52   54 am   BACKBONE|DICT|INTERRES
   105   54   55 1    
   106   54  120 1    
   107   55   56 1    
   108   55   57 1    
   109   55  121 1    
   110   56  122 1    
   111   56  123 1    
   112   56  124 1    
   113   57   58 2    
   114   57   59 am   BACKBONE|DICT|INTERRES
   115   59   60 1    
   116   59  125 1    
   117   60   61 1    
   118   60   62 1    
   119   60  126 1    
   120   61  127 1    
   121   61  128 1    
   122   61  129 1    
   123   62   63 2    
   124   62   64 am   BACKBONE|DICT|INTERRES
   125   64   65 1    
   126   64  130 1    
   127   65   66 1    
   128   65   69 1    
   129   65  131 1    
   130   66   67 am   BACKBONE|DICT|INTERRES
   131   66   68 2    
   132   67  132 1    
   133   67  133 1    
   134   69   70 1    
   135   69  134 1    
   136   69  135 1    
   137   70   71 1    
   138   71  136 1    
   139   71  137 1    
@<TRIPOS>SUBSTRUCTURE
     1 UNK         1 GROUP             0       ****    0 ROOT    
