@<TRIPOS>MOLECULE
3R137
137   139    1
SMALL
USER_CHARGES


@<TRIPOS>ATOM
      1 CA         26.6025   -1.6937    0.5846 C.3       0 UNK        -0.2020 
      2 C          26.6557   -0.4690   -0.3151 C.2       0 UNK         0.4855 
      3 O          25.7174    0.3283   -0.3262 O.2       0 UNK        -0.5197 
      4 N          27.7409   -0.3175   -1.0830 N.am      1 UNK        -0.4892 
      5 CA         27.9543    0.7486   -2.0668 C.3       1 UNK         0.0835 
      6 C6         29.4085    0.7505   -2.6136 C.3       12 UNK        -0.0855 
      7 S7         30.0522   -0.9016   -3.0636 S.3       12 UNK        -0.2931 
      8 C8         30.8509   -0.5781   -4.6628 C.3       12 UNK         0.0378 
      9 C9         31.0800   -1.8795   -5.4138 C.ar      12 UNK        -0.0802 
     10 C10        32.1575   -2.7101   -5.0895 C.ar      12 UNK        -0.0944 
     11 C11        32.3467   -3.9187   -5.7669 C.ar      12 UNK        -0.0787 
     12 C12        31.4544   -4.2880   -6.7787 C.ar      12 UNK        -0.0862 
     13 C13        30.3852   -3.4563   -7.1274 C.ar      12 UNK        -0.0733 
     14 C14        30.2025   -2.2553   -6.4338 C.ar      12 UNK        -0.0832 
     15 C15        29.4752   -3.8342   -8.2903 C.3       12 UNK         0.0240 
     16 S16        27.7870   -4.2606   -7.7572 S.3       12 UNK        -0.2522 
     17 C17        26.9232   -2.6762   -8.0259 C.3       12 UNK        -0.0967 
     18 CA         25.6338   -2.4912   -7.1832 C.3       5 UNK         0.0660 
     19 N          25.8477   -2.6104   -5.7403 N.am      5 UNK        -0.4015 
     20 C          25.5566   -3.6998   -5.0158 C.2       4 UNK         0.4946 
     21 O          25.1272   -4.7529   -5.4904 O.2       4 UNK        -0.5353 
     22 CA         25.7322   -3.5899   -3.4958 C.3       4 UNK         0.0277 
     23 CB         27.2169   -3.4961   -3.1053 C.3       4 UNK        -0.1981 
     24 N          24.9867   -2.4418   -2.9785 N.am      4 UNK        -0.4209 
     25 C          23.6779   -2.4748   -2.6777 C.2       3 UNK         0.4942 
     26 O          22.9946   -3.4981   -2.7321 O.2       3 UNK        -0.5208 
     27 CA         22.9991   -1.1657   -2.2341 C.3       3 UNK         0.0250 
     28 CB         22.7074   -1.1850   -0.7242 C.3       3 UNK        -0.1990 
     29 N          23.7882    0.0216   -2.5669 N.am      3 UNK        -0.4232 
     30 C          23.7767    0.6100   -3.7727 C.2       2 UNK         0.4993 
     31 O          23.0203    0.2750   -4.6845 O.2       2 UNK        -0.5286 
     32 CA         24.7769    1.7565   -4.0139 C.3       2 UNK         0.0209 
     33 CB         24.0873    3.1157   -3.8133 C.3       2 UNK        -0.1931 
     34 N          25.9764    1.6958   -3.1688 N.am      2 UNK        -0.4546 
     35 C          26.8735    0.6985   -3.1701 C.2       1 UNK         0.5154 
     36 O          26.8121   -0.2671   -3.9340 O.2       1 UNK        -0.5181 
     37 C          25.0572   -1.0955   -7.4470 C.2       5 UNK         0.5014 
     38 O          25.5315   -0.1284   -6.8485 O.2       5 UNK        -0.5248 
     39 N          24.1182   -0.9945   -8.3985 N.am      6 UNK        -0.4434 
     40 CA         23.4666    0.2569   -8.8137 C.3       6 UNK         0.0363 
     41 CB         22.3577   -0.0647   -9.8289 C.3       6 UNK        -0.1936 
     42 C          24.4212    1.3276   -9.3819 C.2       6 UNK         0.5081 
     43 O          24.0702    2.5076   -9.3800 O.2       6 UNK        -0.5248 
     44 N          25.6126    0.9087   -9.8344 N.am      7 UNK        -0.4718 
     45 CA         26.7180    1.7820  -10.2416 C.3       7 UNK         0.0273 
     46 CB         27.8098    0.9285  -10.9085 C.3       7 UNK        -0.1935 
     47 C          27.3193    2.5988   -9.0804 C.2       7 UNK         0.5018 
     48 O          27.9140    3.6456   -9.3355 O.2       7 UNK        -0.5186 
     49 N          27.1656    2.1041   -7.8413 N.am      8 UNK        -0.4240 
     50 CA         27.5597    2.7089   -6.5625 C.3       8 UNK         0.0235 
     51 CB         26.7929    4.0252   -6.3215 C.3       8 UNK        -0.2000 
     52 C          29.0716    2.8765   -6.3189 C.2       8 UNK         0.4941 
     53 O          29.4429    3.3662   -5.2515 O.2       8 UNK        -0.5273 
     54 N          29.9217    2.4487   -7.2577 N.am      9 UNK        -0.4262 
     55 CA         31.3751    2.4660   -7.1447 C.3       9 UNK         0.0264 
     56 CB         31.9223    3.8761   -7.4355 C.3       9 UNK        -0.1955 
     57 C          31.9526    1.4425   -8.1246 C.2       9 UNK         0.5031 
     58 O          31.4782    1.3602   -9.2598 O.2       9 UNK        -0.5390 
     59 N          32.9721    0.7154   -7.6620 N.am      10 UNK        -0.4204 
     60 CA         33.7827   -0.2936   -8.3419 C.3       10 UNK         0.0237 
     61 CB         32.9224   -1.4156   -8.9621 C.3       10 UNK        -0.1985 
     62 C          34.7434   -0.8616   -7.2837 C.2       10 UNK         0.4970 
     63 O          34.6677   -0.4600   -6.1174 O.2       10 UNK        -0.4914 
     64 N          35.6269   -1.7751   -7.7048 N.am      11 UNK        -0.4285 
     65 CA         36.5964   -2.4889   -6.8511 C.3       11 UNK         0.1007 
     66 C          37.7111   -1.5893   -6.2301 C.2       11 UNK         0.5703 
     67 N          37.9554   -0.3901   -6.7460 N.am      11 UNK        -0.7361 
     68 O          38.3937   -1.9931   -5.2911 O.2       11 UNK        -0.4986 
     69 C69        35.9118   -3.4161   -5.8017 C.3       12 UNK        -0.0947 
     70 S70        34.8834   -4.7111   -6.5732 S.3       12 UNK        -0.2240 
     71 C71        33.4972   -4.8447   -5.4001 C.3       12 UNK         0.0194 
     72 H72        25.8565   -2.3976    0.2166 H         1 UNK         0.0906 
     73 H73        27.5626   -2.2076    0.6279 H         1 UNK         0.0906 
     74 H74        26.3285   -1.4037    1.5986 H         1 UNK         0.0906 
     75 H75        28.4694   -1.0185   -1.0688 H         1 UNK         0.3140 
     76 H76        27.8253    1.6923   -1.5319 H         1 UNK         0.1085 
     77 H77        30.0745    1.1509   -1.8477 H         1 UNK         0.0836 
     78 H78        29.4997    1.4357   -3.4568 H         1 UNK         0.0836 
     79 H79        31.7996   -0.0638   -4.5019 H         1 UNK         0.0731 
     80 H80        30.2266    0.0917   -5.2558 H         1 UNK         0.0731 
     81 H81        32.8401   -2.4185   -4.3031 H         1 UNK         0.1312 
     82 H82        31.6083   -5.2184   -7.3081 H         1 UNK         0.1406 
     83 H83        29.3842   -1.5999   -6.6855 H         1 UNK         0.1631 
     84 H84        29.8853   -4.6923   -8.8251 H         1 UNK         0.0717 
     85 H85        29.4492   -3.0194   -9.0154 H         1 UNK         0.0717 
     86 H86        27.6121   -1.8532   -7.8422 H         1 UNK         0.0934 
     87 H87        26.6827   -2.6223   -9.0895 H         1 UNK         0.0934 
     88 H88        24.8943   -3.2281   -7.5043 H         1 UNK         0.0739 
     89 H89        26.1523   -1.7580   -5.2766 H         1 UNK         0.3093 
     90 H90        25.3365   -4.5024   -3.0440 H         1 UNK         0.0818 
     91 H91        27.7554   -4.3902   -3.4217 H         1 UNK         0.0819 
     92 H92        27.7134   -2.6467   -3.5721 H         1 UNK         0.0819 
     93 H93        27.3413   -3.4073   -2.0265 H         1 UNK         0.0819 
     94 H94        25.4702   -1.5516   -2.9888 H         1 UNK         0.3041 
     95 H95        22.0395   -1.1081   -2.7528 H         1 UNK         0.0784 
     96 H96        22.0491   -2.0158   -0.4667 H         1 UNK         0.0793 
     97 H97        23.6154   -1.2987   -0.1333 H         1 UNK         0.0793 
     98 H98        22.2113   -0.2688   -0.4038 H         1 UNK         0.0793 
     99 H99        24.4351    0.3522   -1.8556 H         1 UNK         0.3024 
    100 H100       25.0908    1.6821   -5.0555 H         1 UNK         0.1171 
    101 H101       24.7579    3.9434   -4.0431 H         1 UNK         0.0786 
    102 H102       23.2205    3.2124   -4.4688 H         1 UNK         0.0786 
    103 H103       23.7366    3.2426   -2.7883 H         1 UNK         0.0786 
    104 H104       26.0693    2.4268   -2.4777 H         1 UNK         0.2977 
    105 H105       23.8029   -1.8354   -8.8616 H         1 UNK         0.3127 
    106 H106       23.0018    0.6885   -7.9242 H         1 UNK         0.0770 
    107 H107       22.7585   -0.5271  -10.7318 H         1 UNK         0.0814 
    108 H108       21.8323    0.8417  -10.1335 H         1 UNK         0.0814 
    109 H109       21.6133   -0.7392   -9.4054 H         1 UNK         0.0814 
    110 H110       25.7964   -0.0831   -9.8257 H         1 UNK         0.2983 
    111 H111       26.3344    2.4934  -10.9763 H         1 UNK         0.0947 
    112 H112       28.6413    1.5507  -11.2436 H         1 UNK         0.0806 
    113 H113       27.4263    0.4057  -11.7849 H         1 UNK         0.0806 
    114 H114       28.2189    0.1845  -10.2236 H         1 UNK         0.0806 
    115 H115       26.6423    1.2381   -7.7415 H         1 UNK         0.3000 
    116 H116       27.2370    1.9942   -5.8074 H         1 UNK         0.0850 
    117 H117       26.9541    4.3931   -5.3075 H         1 UNK         0.0810 
    118 H118       25.7192    3.8878   -6.4500 H         1 UNK         0.0810 
    119 H119       27.1142    4.8109   -7.0058 H         1 UNK         0.0810 
    120 H120       29.5646    2.0673   -8.1243 H         1 UNK         0.3040 
    121 H121       31.6526    2.1783   -6.1280 H         1 UNK         0.0766 
    122 H122       31.5532    4.6045   -6.7135 H         1 UNK         0.0812 
    123 H123       31.6371    4.2183   -8.4313 H         1 UNK         0.0812 
    124 H124       33.0116    3.8922   -7.3825 H         1 UNK         0.0812 
    125 H125       33.2864    0.8493   -6.7060 H         1 UNK         0.3205 
    126 H126       34.3691    0.1988   -9.1194 H         1 UNK         0.0754 
    127 H127       32.2383   -1.0412   -9.7223 H         1 UNK         0.0769 
    128 H128       32.3339   -1.9197   -8.2008 H         1 UNK         0.0769 
    129 H129       33.5386   -2.1732   -9.4467 H         1 UNK         0.0769 
    130 H130       35.6357   -2.0340   -8.6804 H         1 UNK         0.2981 
    131 H131       37.1443   -3.1399   -7.5330 H         1 UNK         0.0541 
    132 H132       37.4168   -0.0484   -7.5251 H         1 UNK         0.3459 
    133 H133       38.6851    0.1789   -6.3467 H         1 UNK         0.3459 
    134 H134       36.6578   -3.9319   -5.1951 H         1 UNK         0.0612 
    135 H135       35.3107   -2.8299   -5.1057 H         1 UNK         0.0612 
    136 H136       33.8464   -4.6514   -4.3846 H         1 UNK         0.0624 
    137 H137       33.1406   -5.8757   -5.4034 H         1 UNK         0.0624 
@<TRIPOS>BOND
     1    1    2 1    
     2    1   72 1    
     3    1   73 1    
     4    1   74 1    
     5    2    3 2    
     6    2    4 am   BACKBONE|DICT|INTERRES
     7    4    5 1    
     8    4   75 1    
     9    5    6 1    
    10    5   35 1    
    11    5   76 1    
    12    6    7 1    
    13    6   77 1    
    14    6   78 1    
    15    7    8 1    
    16    8    9 1    
    17    8   79 1    
    18    8   80 1    
    19    9   10 ar   
    20    9   14 ar   
    21   10   11 ar   
    22   10   81 1    
    23   11   12 ar   
    24   11   71 1    
    25   12   13 ar   
    26   12   82 1    
    27   13   14 ar   
    28   13   15 1    
    29   14   83 1    
    30   15   16 1    
    31   15   84 1    
    32   15   85 1    
    33   16   17 1    
    34   17   18 1    
    35   17   86 1    
    36   17   87 1    
    37   18   19 1    
    38   18   37 1    
    39   18   88 1    
    40   19   20 am   BACKBONE|DICT|INTERRES
    41   19   89 1    
    42   20   21 2    
    43   20   22 1    
    44   22   23 1    
    45   22   24 1    
    46   22   90 1    
    47   23   91 1    
    48   23   92 1    
    49   23   93 1    
    50   24   25 am   BACKBONE|DICT|INTERRES
    51   24   94 1    
    52   25   26 2    
    53   25   27 1    
    54   27   28 1    
    55   27   29 1    
    56   27   95 1    
    57   28   96 1    
    58   28   97 1    
    59   28   98 1    
    60   29   30 am   BACKBONE|DICT|INTERRES
    61   29   99 1    
    62   30   31 2    
    63   30   32 1    
    64   32   33 1    
    65   32   34 1    
    66   32  100 1    
    67   33  101 1    
    68   33  102 1    
    69   33  103 1    
    70   34   35 am   BACKBONE|DICT|INTERRES
    71   34  104 1    
    72   35   36 2    
    73   37   38 2    
    74   37   39 am   BACKBONE|DICT|INTERRES
    75   39   40 1    
    76   39  105 1    
    77   40   41 1    
    78   40   42 1    
    79   40  106 1    
    80   41  107 1    
    81   41  108 1    
    82   41  109 1    
    83   42   43 2    
    84   42   44 am   BACKBONE|DICT|INTERRES
    85   44   45 1    
    86   44  110 1    
    87   45   46 1    
    88   45   47 1    
    89   45  111 1    
    90   46  112 1    
    91   46  113 1    
    92   46  114 1    
    93   47   48 2    
    94   47   49 am   BACKBONE|DICT|INTERRES
    95   49   50 1    
    96   49  115 1    
    97   50   51 1    
    98   50   52 1    
    99   50  116 1    
   100   51  117 1    
   101   51  118 1    
   102   51  119 1    
   103   52   53 2    
   104   52   54 am   BACKBONE|DICT|INTERRES
   105   54   55 1    
   106   54  120 1    
   107   55   56 1    
   108   55   57 1    
   109   55  121 1    
   110   56  122 1    
   111   56  123 1    
   112   56  124 1    
   113   57   58 2    
   114   57   59 am   BACKBONE|DICT|INTERRES
   115   59   60 1    
   116   59  125 1    
   117   60   61 1    
   118   60   62 1    
   119   60  126 1    
   120   61  127 1    
   121   61  128 1    
   122   61  129 1    
   123   62   63 2    
   124   62   64 am   BACKBONE|DICT|INTERRES
   125   64   65 1    
   126   64  130 1    
   127   65   66 1    
   128   65   69 1    
   129   65  131 1    
   130   66   67 am   BACKBONE|DICT|INTERRES
   131   66   68 2    
   132   67  132 1    
   133   67  133 1    
   134   69   70 1    
   135   69  134 1    
   136   69  135 1    
   137   70   71 1    
   138   71  136 1    
   139   71  137 1    
@<TRIPOS>SUBSTRUCTURE
     1 UNK         1 GROUP             0       ****    0 ROOT    
