@<TRIPOS>MOLECULE
3R137
137   139    1
SMALL
USER_CHARGES


@<TRIPOS>ATOM
      1 CA         24.2183   -5.0520   -3.3029 C.3       0 UNK        -0.2020 
      2 C          25.1781   -4.0154   -2.7396 C.2       0 UNK         0.4855 
      3 O          25.4102   -2.9903   -3.3819 O.2       0 UNK        -0.5197 
      4 N          25.7224   -4.2699   -1.5402 N.am      1 UNK        -0.4892 
      5 CA         26.6777   -3.4157   -0.8092 C.3       1 UNK         0.0835 
      6 C6         28.0816   -3.3596   -1.4757 C.3       12 UNK        -0.0855 
      7 S7         28.8473   -5.0149   -1.5427 S.3       12 UNK        -0.2931 
      8 C8         30.6142   -4.6092   -1.7708 C.3       12 UNK         0.0378 
      9 C9         30.9626   -4.0968   -3.1672 C.ar      12 UNK        -0.0802 
     10 C10        31.9408   -3.1059   -3.3179 C.ar      12 UNK        -0.0944 
     11 C11        32.3111   -2.6603   -4.5906 C.ar      12 UNK        -0.0787 
     12 C12        31.6661   -3.1861   -5.7114 C.ar      12 UNK        -0.0862 
     13 C13        30.6721   -4.1590   -5.5846 C.ar      12 UNK        -0.0733 
     14 C14        30.3562   -4.6376   -4.3085 C.ar      12 UNK        -0.0832 
     15 C15        29.9978   -4.6852   -6.8527 C.3       12 UNK         0.0240 
     16 S16        28.2784   -5.2878   -6.6775 S.3       12 UNK        -0.2522 
     17 C17        27.4079   -3.9695   -5.7628 C.3       12 UNK        -0.0967 
     18 CA         26.9011   -2.7866   -6.6258 C.3       5 UNK         0.0660 
     19 N          25.6971   -2.1873   -6.0424 N.am      5 UNK        -0.4015 
     20 C          24.8748   -1.3504   -6.6867 C.2       4 UNK         0.4946 
     21 O          25.0119   -1.0265   -7.8675 O.2       4 UNK        -0.5353 
     22 CA         23.7157   -0.7544   -5.8674 C.3       4 UNK         0.0277 
     23 CB         22.6345   -1.8138   -5.5974 C.3       4 UNK        -0.1981 
     24 N          24.1142   -0.1280   -4.6000 N.am      4 UNK        -0.4209 
     25 C          25.0367    0.8315   -4.4526 C.2       3 UNK         0.4942 
     26 O          25.7547    1.2263   -5.3678 O.2       3 UNK        -0.5208 
     27 CA         25.2047    1.4918   -3.0720 C.3       3 UNK         0.0250 
     28 CB         24.3570    2.7753   -2.9803 C.3       3 UNK        -0.1990 
     29 N          24.9871    0.6267   -1.9056 N.am      3 UNK        -0.4232 
     30 C          23.8622    0.0469   -1.4690 C.2       2 UNK         0.4993 
     31 O          22.7906    0.0785   -2.0767 O.2       2 UNK        -0.5286 
     32 CA         23.9811   -0.7302   -0.1436 C.3       2 UNK         0.0209 
     33 CB         22.6075   -1.1041    0.4446 C.3       2 UNK        -0.1931 
     34 N          24.7688   -1.9511   -0.3145 N.am      2 UNK        -0.4546 
     35 C          26.0964   -2.0165   -0.4955 C.2       1 UNK         0.5154 
     36 O          26.8328   -1.0288   -0.4364 O.2       1 UNK        -0.5181 
     37 C          28.0016   -1.7250   -6.8078 C.2       5 UNK         0.5014 
     38 O          28.6529   -1.6830   -7.8529 O.2       5 UNK        -0.5248 
     39 N          28.1792   -0.8782   -5.7841 N.am      6 UNK        -0.4434 
     40 CA         29.2398    0.1233   -5.7160 C.3       6 UNK         0.0363 
     41 CB         29.2892    0.7408   -4.3108 C.3       6 UNK        -0.1936 
     42 C          29.1358    1.2093   -6.7947 C.2       6 UNK         0.5081 
     43 O          30.1584    1.5895   -7.3637 O.2       6 UNK        -0.5248 
     44 N          27.9101    1.6636   -7.0831 N.am      7 UNK        -0.4718 
     45 CA         27.6051    2.6171   -8.1501 C.3       7 UNK         0.0273 
     46 CB         26.1734    3.1455   -7.9701 C.3       7 UNK        -0.1935 
     47 C          27.7842    2.0166   -9.5531 C.2       7 UNK         0.5018 
     48 O          28.1987    2.7369  -10.4611 O.2       7 UNK        -0.5186 
     49 N          27.4906    0.7162   -9.7049 N.am      8 UNK        -0.4240 
     50 CA         27.6914   -0.0328  -10.9479 C.3       8 UNK         0.0235 
     51 CB         26.9252   -1.3645  -10.8891 C.3       8 UNK        -0.2000 
     52 C          29.1821   -0.2615  -11.2466 C.2       8 UNK         0.4941 
     53 O          29.6044   -0.0834  -12.3897 O.2       8 UNK        -0.5273 
     54 N          29.9540   -0.6227  -10.2119 N.am      9 UNK        -0.4262 
     55 CA         31.4112   -0.7700  -10.2752 C.3       9 UNK         0.0264 
     56 CB         31.8824   -1.5565   -9.0457 C.3       9 UNK        -0.1955 
     57 C          32.1626    0.5710  -10.3546 C.2       9 UNK         0.5031 
     58 O          33.2895    0.5957  -10.8512 O.2       9 UNK        -0.5390 
     59 N          31.5376    1.6404   -9.8424 N.am      10 UNK        -0.4204 
     60 CA         32.0622    2.9972   -9.6634 C.3       10 UNK         0.0237 
     61 CB         32.4218    3.6498  -11.0157 C.3       10 UNK        -0.1985 
     62 C          33.2010    3.0604   -8.6253 C.2       10 UNK         0.4970 
     63 O          34.1299    3.8543   -8.7876 O.2       10 UNK        -0.4914 
     64 N          33.1034    2.2371   -7.5710 N.am      11 UNK        -0.4285 
     65 CA         34.0338    2.2336   -6.4284 C.3       11 UNK         0.1007 
     66 C          33.6708    3.2582   -5.3139 C.2       11 UNK         0.5703 
     67 N          32.5083    3.9006   -5.3539 N.am      11 UNK        -0.7361 
     68 O          34.4686    3.4896   -4.4083 O.2       11 UNK        -0.4986 
     69 C69        34.2782    0.8043   -5.8710 C.3       12 UNK        -0.0947 
     70 S70        32.7878   -0.0002   -5.1999 S.3       12 UNK        -0.2240 
     71 C71        33.4325   -1.6456   -4.7761 C.3       12 UNK         0.0194 
     72 H72        24.1926   -5.9562   -2.6952 H         1 UNK         0.0906 
     73 H73        23.2096   -4.6424   -3.3457 H         1 UNK         0.0906 
     74 H74        24.5136   -5.3337   -4.3128 H         1 UNK         0.0906 
     75 H75        25.4910   -5.1375   -1.0751 H         1 UNK         0.3140 
     76 H76        26.8065   -3.8803    0.1700 H         1 UNK         0.1085 
     77 H77        28.0225   -2.9472   -2.4841 H         1 UNK         0.0836 
     78 H78        28.7491   -2.7037   -0.9139 H         1 UNK         0.0836 
     79 H79        30.9116   -3.8866   -1.0092 H         1 UNK         0.0731 
     80 H80        31.2005   -5.5097   -1.5841 H         1 UNK         0.0731 
     81 H81        32.4351   -2.7000   -2.4457 H         1 UNK         0.1312 
     82 H82        31.9538   -2.8404   -6.6914 H         1 UNK         0.1406 
     83 H83        29.6209   -5.4225   -4.2008 H         1 UNK         0.1631 
     84 H84        30.6041   -5.5018   -7.2462 H         1 UNK         0.0717 
     85 H85        30.0012   -3.9134   -7.6218 H         1 UNK         0.0717 
     86 H86        27.9869   -3.6267   -4.9053 H         1 UNK         0.0934 
     87 H87        26.5505   -4.4805   -5.3267 H         1 UNK         0.0934 
     88 H88        26.6319   -3.1638   -7.6149 H         1 UNK         0.0739 
     89 H89        25.5136   -2.3973   -5.0606 H         1 UNK         0.3093 
     90 H90        23.2681    0.0326   -6.4776 H         1 UNK         0.0818 
     91 H91        21.7500   -1.3689   -5.1410 H         1 UNK         0.0819 
     92 H92        22.3141   -2.2924   -6.5239 H         1 UNK         0.0819 
     93 H93        22.9947   -2.5979   -4.9310 H         1 UNK         0.0819 
     94 H94        23.5542   -0.3465   -3.7806 H         1 UNK         0.3041 
     95 H95        26.2506    1.7943   -3.0077 H         1 UNK         0.0784 
     96 H96        24.5983    3.4595   -3.7952 H         1 UNK         0.0793 
     97 H97        23.2889    2.5641   -3.0420 H         1 UNK         0.0793 
     98 H98        24.5411    3.3069   -2.0467 H         1 UNK         0.0793 
     99 H99        25.8251    0.4114   -1.3719 H         1 UNK         0.3024 
    100 H100       24.4879   -0.0811    0.5746 H         1 UNK         0.1171 
    101 H101       22.7105   -1.5915    1.4143 H         1 UNK         0.0786 
    102 H102       22.0539   -1.7766   -0.2120 H         1 UNK         0.0786 
    103 H103       21.9927   -0.2154    0.5941 H         1 UNK         0.0786 
    104 H104       24.2467   -2.8094   -0.4167 H         1 UNK         0.2977 
    105 H105       27.5638   -0.9466   -4.9878 H         1 UNK         0.3127 
    106 H106       30.1699   -0.4145   -5.8925 H         1 UNK         0.0770 
    107 H107       28.3652    1.2646   -4.0671 H         1 UNK         0.0814 
    108 H108       30.1032    1.4632   -4.2342 H         1 UNK         0.0814 
    109 H109       29.4615   -0.0200   -3.5491 H         1 UNK         0.0814 
    110 H110       27.1226    1.3438   -6.5187 H         1 UNK         0.2983 
    111 H111       28.2959    3.4585   -8.0598 H         1 UNK         0.0947 
    112 H112       25.9237    3.8737   -8.7430 H         1 UNK         0.0806 
    113 H113       26.0528    3.6399   -7.0060 H         1 UNK         0.0806 
    114 H114       25.4381    2.3412   -8.0256 H         1 UNK         0.0806 
    115 H115       27.1597    0.1965   -8.9026 H         1 UNK         0.3000 
    116 H116       27.2759    0.5577  -11.7676 H         1 UNK         0.0850 
    117 H117       27.0276   -1.9134  -11.8261 H         1 UNK         0.0810 
    118 H118       25.8601   -1.2011  -10.7230 H         1 UNK         0.0810 
    119 H119       27.2896   -2.0121  -10.0918 H         1 UNK         0.0810 
    120 H120       29.5070   -0.8292   -9.3201 H         1 UNK         0.3040 
    121 H121       31.6621   -1.3443  -11.1695 H         1 UNK         0.0766 
    122 H122       32.9656   -1.6865   -9.0502 H         1 UNK         0.0812 
    123 H123       31.6167   -1.0416   -8.1211 H         1 UNK         0.0812 
    124 H124       31.4354   -2.5498   -9.0238 H         1 UNK         0.0812 
    125 H125       30.6550    1.4716   -9.3729 H         1 UNK         0.3205 
    126 H126       31.2407    3.5737   -9.2356 H         1 UNK         0.0754 
    127 H127       32.6566    4.7073  -10.8885 H         1 UNK         0.0769 
    128 H128       31.5906    3.5857  -11.7182 H         1 UNK         0.0769 
    129 H129       33.2899    3.1791  -11.4776 H         1 UNK         0.0769 
    130 H130       32.2681    1.6714   -7.4708 H         1 UNK         0.2981 
    131 H131       35.0049    2.5676   -6.7983 H         1 UNK         0.0541 
    132 H132       31.8427    3.7047   -6.0841 H         1 UNK         0.3459 
    133 H133       32.2883    4.5681   -4.6320 H         1 UNK         0.3459 
    134 H134       35.0430    0.8230   -5.0926 H         1 UNK         0.0612 
    135 H135       34.6770    0.1724   -6.6660 H         1 UNK         0.0612 
    136 H136       34.0968   -1.9909   -5.5697 H         1 UNK         0.0624 
    137 H137       34.0411   -1.5694   -3.8739 H         1 UNK         0.0624 
@<TRIPOS>BOND
     1    1    2 1    
     2    1   72 1    
     3    1   73 1    
     4    1   74 1    
     5    2    3 2    
     6    2    4 am   BACKBONE|DICT|INTERRES
     7    4    5 1    
     8    4   75 1    
     9    5    6 1    
    10    5   35 1    
    11    5   76 1    
    12    6    7 1    
    13    6   77 1    
    14    6   78 1    
    15    7    8 1    
    16    8    9 1    
    17    8   79 1    
    18    8   80 1    
    19    9   10 ar   
    20    9   14 ar   
    21   10   11 ar   
    22   10   81 1    
    23   11   12 ar   
    24   11   71 1    
    25   12   13 ar   
    26   12   82 1    
    27   13   14 ar   
    28   13   15 1    
    29   14   83 1    
    30   15   16 1    
    31   15   84 1    
    32   15   85 1    
    33   16   17 1    
    34   17   18 1    
    35   17   86 1    
    36   17   87 1    
    37   18   19 1    
    38   18   37 1    
    39   18   88 1    
    40   19   20 am   BACKBONE|DICT|INTERRES
    41   19   89 1    
    42   20   21 2    
    43   20   22 1    
    44   22   23 1    
    45   22   24 1    
    46   22   90 1    
    47   23   91 1    
    48   23   92 1    
    49   23   93 1    
    50   24   25 am   BACKBONE|DICT|INTERRES
    51   24   94 1    
    52   25   26 2    
    53   25   27 1    
    54   27   28 1    
    55   27   29 1    
    56   27   95 1    
    57   28   96 1    
    58   28   97 1    
    59   28   98 1    
    60   29   30 am   BACKBONE|DICT|INTERRES
    61   29   99 1    
    62   30   31 2    
    63   30   32 1    
    64   32   33 1    
    65   32   34 1    
    66   32  100 1    
    67   33  101 1    
    68   33  102 1    
    69   33  103 1    
    70   34   35 am   BACKBONE|DICT|INTERRES
    71   34  104 1    
    72   35   36 2    
    73   37   38 2    
    74   37   39 am   BACKBONE|DICT|INTERRES
    75   39   40 1    
    76   39  105 1    
    77   40   41 1    
    78   40   42 1    
    79   40  106 1    
    80   41  107 1    
    81   41  108 1    
    82   41  109 1    
    83   42   43 2    
    84   42   44 am   BACKBONE|DICT|INTERRES
    85   44   45 1    
    86   44  110 1    
    87   45   46 1    
    88   45   47 1    
    89   45  111 1    
    90   46  112 1    
    91   46  113 1    
    92   46  114 1    
    93   47   48 2    
    94   47   49 am   BACKBONE|DICT|INTERRES
    95   49   50 1    
    96   49  115 1    
    97   50   51 1    
    98   50   52 1    
    99   50  116 1    
   100   51  117 1    
   101   51  118 1    
   102   51  119 1    
   103   52   53 2    
   104   52   54 am   BACKBONE|DICT|INTERRES
   105   54   55 1    
   106   54  120 1    
   107   55   56 1    
   108   55   57 1    
   109   55  121 1    
   110   56  122 1    
   111   56  123 1    
   112   56  124 1    
   113   57   58 2    
   114   57   59 am   BACKBONE|DICT|INTERRES
   115   59   60 1    
   116   59  125 1    
   117   60   61 1    
   118   60   62 1    
   119   60  126 1    
   120   61  127 1    
   121   61  128 1    
   122   61  129 1    
   123   62   63 2    
   124   62   64 am   BACKBONE|DICT|INTERRES
   125   64   65 1    
   126   64  130 1    
   127   65   66 1    
   128   65   69 1    
   129   65  131 1    
   130   66   67 am   BACKBONE|DICT|INTERRES
   131   66   68 2    
   132   67  132 1    
   133   67  133 1    
   134   69   70 1    
   135   69  134 1    
   136   69  135 1    
   137   70   71 1    
   138   71  136 1    
   139   71  137 1    
@<TRIPOS>SUBSTRUCTURE
     1 UNK         1 GROUP             0       ****    0 ROOT    
