@<TRIPOS>MOLECULE
3R137
137   139    1
SMALL
USER_CHARGES


@<TRIPOS>ATOM
      1 CA         29.6978   -1.0658   -3.4629 C.3       0 UNK        -0.2020 
      2 C          28.3391   -1.7194   -3.2979 C.2       0 UNK         0.4855 
      3 O          27.3960   -1.3620   -4.0064 O.2       0 UNK        -0.5197 
      4 N          28.2371   -2.6680   -2.3577 N.am      1 UNK        -0.4892 
      5 CA         27.0059   -3.3654   -1.9680 C.3       1 UNK         0.0835 
      6 C6         27.2819   -4.4480   -0.8960 C.3       12 UNK        -0.0855 
      7 S7         28.0485   -5.9539   -1.5840 S.3       12 UNK        -0.2931 
      8 C8         29.8461   -5.6201   -1.4822 C.3       12 UNK         0.0378 
      9 C9         30.4727   -5.0866   -2.7736 C.ar      12 UNK        -0.0802 
     10 C10        31.6287   -4.2989   -2.7044 C.ar      12 UNK        -0.0944 
     11 C11        32.2494   -3.8344   -3.8702 C.ar      12 UNK        -0.0787 
     12 C12        31.6989   -4.1497   -5.1157 C.ar      12 UNK        -0.0862 
     13 C13        30.5551   -4.9471   -5.2040 C.ar      12 UNK        -0.0733 
     14 C14        29.9547   -5.4171   -4.0331 C.ar      12 UNK        -0.0832 
     15 C15        29.9908   -5.3412   -6.5631 C.3       12 UNK         0.0240 
     16 S16        28.3058   -4.7058   -6.8287 S.3       12 UNK        -0.2522 
     17 C17        28.6237   -2.9172   -6.9585 C.3       12 UNK        -0.0967 
     18 CA         27.3548   -2.1296   -7.3633 C.3       5 UNK         0.0660 
     19 N          26.2574   -2.2799   -6.4063 N.am      5 UNK        -0.4015 
     20 C          24.9909   -2.5441   -6.7441 C.2       4 UNK         0.4946 
     21 O          24.6145   -2.7825   -7.8932 O.2       4 UNK        -0.5353 
     22 CA         23.9520   -2.5275   -5.6111 C.3       4 UNK         0.0277 
     23 CB         23.8998   -3.8954   -4.9114 C.3       4 UNK        -0.1981 
     24 N          24.1393   -1.4699   -4.6100 N.am      4 UNK        -0.4209 
     25 C          24.1425   -0.1502   -4.8719 C.2       3 UNK         0.4942 
     26 O          24.1607    0.3153   -6.0111 O.2       3 UNK        -0.5208 
     27 CA         24.0929    0.8339   -3.6903 C.3       3 UNK         0.0250 
     28 CB         22.6891    1.4485   -3.5566 C.3       3 UNK        -0.1990 
     29 N          24.4725    0.2115   -2.4245 N.am      3 UNK        -0.4232 
     30 C          25.2318    0.7611   -1.4725 C.2       2 UNK         0.4993 
     31 O          25.6552    1.9188   -1.5030 O.2       2 UNK        -0.5286 
     32 CA         25.6095   -0.1565   -0.2952 C.3       2 UNK         0.0209 
     33 CB         24.3863   -0.5086    0.5764 C.3       2 UNK        -0.1931 
     34 N          26.3457   -1.3561   -0.7241 N.am      2 UNK        -0.4546 
     35 C          25.9222   -2.3781   -1.4867 C.2       1 UNK         0.5154 
     36 O          24.7602   -2.5146   -1.8780 O.2       1 UNK        -0.5181 
     37 C          27.6747   -0.6381   -7.5460 C.2       5 UNK         0.5014 
     38 O          27.9012   -0.2160   -8.6797 O.2       5 UNK        -0.5248 
     39 N          27.6603    0.1388   -6.4489 N.am      6 UNK        -0.4434 
     40 CA         28.0248    1.5606   -6.4045 C.3       6 UNK         0.0363 
     41 CB         27.9325    2.0761   -4.9606 C.3       6 UNK        -0.1936 
     42 C          27.2295    2.4723   -7.3555 C.2       6 UNK         0.5081 
     43 O          27.7778    3.4740   -7.8156 O.2       6 UNK        -0.5248 
     44 N          25.9757    2.1076   -7.6617 N.am      7 UNK        -0.4718 
     45 CA         25.1461    2.7790   -8.6667 C.3       7 UNK         0.0273 
     46 CB         23.7005    2.2693   -8.5562 C.3       7 UNK        -0.1935 
     47 C          25.6645    2.6160  -10.1096 C.2       7 UNK         0.5018 
     48 O          25.3603    3.4668  -10.9470 O.2       7 UNK        -0.5186 
     49 N          26.4254    1.5452  -10.3791 N.am      8 UNK        -0.4240 
     50 CA         27.0817    1.2937  -11.6609 C.3       8 UNK         0.0235 
     51 CB         27.0539   -0.2109  -11.9821 C.3       8 UNK        -0.2000 
     52 C          28.5187    1.8330  -11.6445 C.2       8 UNK         0.4941 
     53 O          28.8814    2.5890  -12.5473 O.2       8 UNK        -0.5273 
     54 N          29.3055    1.4584  -10.6259 N.am      9 UNK        -0.4262 
     55 CA         30.6873    1.8994  -10.4368 C.3       9 UNK         0.0264 
     56 CB         31.6294    1.1691  -11.4142 C.3       9 UNK        -0.1955 
     57 C          31.1181    1.6432   -8.9894 C.2       9 UNK         0.5031 
     58 O          30.8133    0.5819   -8.4425 O.2       9 UNK        -0.5390 
     59 N          31.8472    2.6017   -8.4055 N.am      10 UNK        -0.4204 
     60 CA         32.4258    2.5019   -7.0634 C.3       10 UNK         0.0237 
     61 CB         32.8830    3.8994   -6.6119 C.3       10 UNK        -0.1985 
     62 C          33.5980    1.5048   -7.0093 C.2       10 UNK         0.4970 
     63 O          34.2462    1.2566   -8.0296 O.2       10 UNK        -0.4914 
     64 N          33.8524    0.9744   -5.8080 N.am      11 UNK        -0.4285 
     65 CA         34.9275    0.0170   -5.5045 C.3       11 UNK         0.1007 
     66 C          36.3479    0.5936   -5.7591 C.2       11 UNK         0.5703 
     67 N          37.2789   -0.2293   -6.2227 N.am      11 UNK        -0.7361 
     68 O          36.6219    1.7640   -5.4978 O.2       11 UNK        -0.4986 
     69 C69        34.8153   -0.5171   -4.0516 C.3       12 UNK        -0.0947 
     70 S70        33.1801   -1.2404   -3.6969 S.3       12 UNK        -0.2240 
     71 C71        33.5328   -3.0187   -3.7956 C.3       12 UNK         0.0194 
     72 H72        30.4673   -1.6383   -2.9497 H         1 UNK         0.0906 
     73 H73        29.9733   -0.9919   -4.5142 H         1 UNK         0.0906 
     74 H74        29.6891   -0.0644   -3.0359 H         1 UNK         0.0906 
     75 H75        29.0677   -2.9461   -1.8561 H         1 UNK         0.3140 
     76 H76        26.6119   -3.8519   -2.8622 H         1 UNK         0.1085 
     77 H77        27.8890   -4.0545   -0.0787 H         1 UNK         0.0836 
     78 H78        26.3466   -4.7744   -0.4355 H         1 UNK         0.0836 
     79 H79        30.0441   -4.9413   -0.6515 H         1 UNK         0.0731 
     80 H80        30.3478   -6.5561   -1.2333 H         1 UNK         0.0731 
     81 H81        32.0586   -4.0575   -1.7416 H         1 UNK         0.1312 
     82 H82        32.1765   -3.7909   -6.0174 H         1 UNK         0.1406 
     83 H83        29.0808   -6.0482   -4.1156 H         1 UNK         0.1631 
     84 H84        30.6363   -4.9966   -7.3726 H         1 UNK         0.0717 
     85 H85        29.9688   -6.4296   -6.6330 H         1 UNK         0.0717 
     86 H86        29.0189   -2.5675   -6.0058 H         1 UNK         0.0934 
     87 H87        29.4157   -2.7614   -7.6943 H         1 UNK         0.0934 
     88 H88        27.0450   -2.5033   -8.3418 H         1 UNK         0.0739 
     89 H89        26.4790   -2.0774   -5.4344 H         1 UNK         0.3093 
     90 H90        22.9789   -2.3510   -6.0742 H         1 UNK         0.0818 
     91 H91        23.1114   -3.9293   -4.1592 H         1 UNK         0.0819 
     92 H92        23.6969   -4.6922   -5.6283 H         1 UNK         0.0819 
     93 H93        24.8429   -4.1341   -4.4202 H         1 UNK         0.0819 
     94 H94        24.1976   -1.7907   -3.6513 H         1 UNK         0.3041 
     95 H95        24.7919    1.6374   -3.9242 H         1 UNK         0.0784 
     96 H96        22.3811    1.9281   -4.4870 H         1 UNK         0.0793 
     97 H97        21.9407    0.6934   -3.3131 H         1 UNK         0.0793 
     98 H98        22.6636    2.2099   -2.7767 H         1 UNK         0.0793 
     99 H99        24.2239   -0.7640   -2.2861 H         1 UNK         0.3024 
    100 H100       26.2997    0.4119    0.3312 H         1 UNK         0.1171 
    101 H101       24.6787   -1.0984    1.4452 H         1 UNK         0.0786 
    102 H102       23.9032    0.3963    0.9478 H         1 UNK         0.0786 
    103 H103       23.6319   -1.0741    0.0291 H         1 UNK         0.0786 
    104 H104       27.3337   -1.3398   -0.5119 H         1 UNK         0.2977 
    105 H105       27.4639   -0.3004   -5.5535 H         1 UNK         0.3127 
    106 H106       29.0694    1.6273   -6.7110 H         1 UNK         0.0770 
    107 H107       26.9365    1.9374   -4.5444 H         1 UNK         0.0814 
    108 H108       28.1635    3.1411   -4.9080 H         1 UNK         0.0814 
    109 H109       28.6405    1.5656   -4.3109 H         1 UNK         0.0814 
    110 H110       25.5683    1.3001   -7.1998 H         1 UNK         0.2983 
    111 H111       25.1482    3.8480   -8.4427 H         1 UNK         0.0947 
    112 H112       23.0544    2.7584   -9.2865 H         1 UNK         0.0806 
    113 H113       23.2837    2.4719   -7.5694 H         1 UNK         0.0806 
    114 H114       23.6384    1.1943   -8.7308 H         1 UNK         0.0806 
    115 H115       26.6877    0.9264   -9.6167 H         1 UNK         0.3000 
    116 H116       26.5404    1.8082  -12.4581 H         1 UNK         0.0850 
    117 H117       27.5173   -0.4088  -12.9495 H         1 UNK         0.0810 
    118 H118       26.0312   -0.5849  -12.0303 H         1 UNK         0.0810 
    119 H119       27.5898   -0.8021  -11.2392 H         1 UNK         0.0810 
    120 H120       28.9404    0.8419   -9.8997 H         1 UNK         0.3040 
    121 H121       30.7352    2.9736  -10.6288 H         1 UNK         0.0766 
    122 H122       31.3924    1.4015  -12.4524 H         1 UNK         0.0812 
    123 H123       31.5708    0.0869  -11.2909 H         1 UNK         0.0812 
    124 H124       32.6675    1.4604  -11.2479 H         1 UNK         0.0812 
    125 H125       32.0953    3.4203   -8.9421 H         1 UNK         0.3205 
    126 H126       31.6447    2.1535   -6.3833 H         1 UNK         0.0754 
    127 H127       33.2877    3.8731   -5.5991 H         1 UNK         0.0769 
    128 H128       32.0532    4.6068   -6.6078 H         1 UNK         0.0769 
    129 H129       33.6629    4.2985   -7.2623 H         1 UNK         0.0769 
    130 H130       33.2839    1.2474   -5.0208 H         1 UNK         0.2981 
    131 H131       34.7884   -0.8279   -6.1821 H         1 UNK         0.0541 
    132 H132       38.2103    0.1238   -6.3783 H         1 UNK         0.3459 
    133 H133       37.0690   -1.1938   -6.4280 H         1 UNK         0.3459 
    134 H134       34.9844    0.2895   -3.3358 H         1 UNK         0.0612 
    135 H135       35.5866   -1.2639   -3.8536 H         1 UNK         0.0612 
    136 H136       34.1237   -3.3181   -2.9286 H         1 UNK         0.0624 
    137 H137       34.1488   -3.2173   -4.6741 H         1 UNK         0.0624 
@<TRIPOS>BOND
     1    1    2 1    
     2    1   72 1    
     3    1   73 1    
     4    1   74 1    
     5    2    3 2    
     6    2    4 am   BACKBONE|DICT|INTERRES
     7    4    5 1    
     8    4   75 1    
     9    5    6 1    
    10    5   35 1    
    11    5   76 1    
    12    6    7 1    
    13    6   77 1    
    14    6   78 1    
    15    7    8 1    
    16    8    9 1    
    17    8   79 1    
    18    8   80 1    
    19    9   10 ar   
    20    9   14 ar   
    21   10   11 ar   
    22   10   81 1    
    23   11   12 ar   
    24   11   71 1    
    25   12   13 ar   
    26   12   82 1    
    27   13   14 ar   
    28   13   15 1    
    29   14   83 1    
    30   15   16 1    
    31   15   84 1    
    32   15   85 1    
    33   16   17 1    
    34   17   18 1    
    35   17   86 1    
    36   17   87 1    
    37   18   19 1    
    38   18   37 1    
    39   18   88 1    
    40   19   20 am   BACKBONE|DICT|INTERRES
    41   19   89 1    
    42   20   21 2    
    43   20   22 1    
    44   22   23 1    
    45   22   24 1    
    46   22   90 1    
    47   23   91 1    
    48   23   92 1    
    49   23   93 1    
    50   24   25 am   BACKBONE|DICT|INTERRES
    51   24   94 1    
    52   25   26 2    
    53   25   27 1    
    54   27   28 1    
    55   27   29 1    
    56   27   95 1    
    57   28   96 1    
    58   28   97 1    
    59   28   98 1    
    60   29   30 am   BACKBONE|DICT|INTERRES
    61   29   99 1    
    62   30   31 2    
    63   30   32 1    
    64   32   33 1    
    65   32   34 1    
    66   32  100 1    
    67   33  101 1    
    68   33  102 1    
    69   33  103 1    
    70   34   35 am   BACKBONE|DICT|INTERRES
    71   34  104 1    
    72   35   36 2    
    73   37   38 2    
    74   37   39 am   BACKBONE|DICT|INTERRES
    75   39   40 1    
    76   39  105 1    
    77   40   41 1    
    78   40   42 1    
    79   40  106 1    
    80   41  107 1    
    81   41  108 1    
    82   41  109 1    
    83   42   43 2    
    84   42   44 am   BACKBONE|DICT|INTERRES
    85   44   45 1    
    86   44  110 1    
    87   45   46 1    
    88   45   47 1    
    89   45  111 1    
    90   46  112 1    
    91   46  113 1    
    92   46  114 1    
    93   47   48 2    
    94   47   49 am   BACKBONE|DICT|INTERRES
    95   49   50 1    
    96   49  115 1    
    97   50   51 1    
    98   50   52 1    
    99   50  116 1    
   100   51  117 1    
   101   51  118 1    
   102   51  119 1    
   103   52   53 2    
   104   52   54 am   BACKBONE|DICT|INTERRES
   105   54   55 1    
   106   54  120 1    
   107   55   56 1    
   108   55   57 1    
   109   55  121 1    
   110   56  122 1    
   111   56  123 1    
   112   56  124 1    
   113   57   58 2    
   114   57   59 am   BACKBONE|DICT|INTERRES
   115   59   60 1    
   116   59  125 1    
   117   60   61 1    
   118   60   62 1    
   119   60  126 1    
   120   61  127 1    
   121   61  128 1    
   122   61  129 1    
   123   62   63 2    
   124   62   64 am   BACKBONE|DICT|INTERRES
   125   64   65 1    
   126   64  130 1    
   127   65   66 1    
   128   65   69 1    
   129   65  131 1    
   130   66   67 am   BACKBONE|DICT|INTERRES
   131   66   68 2    
   132   67  132 1    
   133   67  133 1    
   134   69   70 1    
   135   69  134 1    
   136   69  135 1    
   137   70   71 1    
   138   71  136 1    
   139   71  137 1    
@<TRIPOS>SUBSTRUCTURE
     1 UNK         1 GROUP             0       ****    0 ROOT    
