@<TRIPOS>MOLECULE
3R137
137   139    1
SMALL
USER_CHARGES


@<TRIPOS>ATOM
      1 CA         29.6924    0.0796   -3.5557 C.3       0 UNK        -0.2020 
      2 C          30.0751    0.4781   -2.1335 C.2       0 UNK         0.4855 
      3 O          30.5988    1.5717   -1.9316 O.2       0 UNK        -0.5197 
      4 N          29.8488   -0.3674   -1.1193 N.am      1 UNK        -0.4892 
      5 CA         29.1539   -1.6579   -1.1882 C.3       1 UNK         0.0835 
      6 C6         29.4940   -2.5563    0.0259 C.3       12 UNK        -0.0855 
      7 S7         31.2466   -3.0591    0.0574 S.3       12 UNK        -0.2931 
      8 C8         31.1513   -4.7724   -0.5551 C.3       12 UNK         0.0378 
      9 C9         31.0660   -4.8271   -2.0743 C.ar      12 UNK        -0.0802 
     10 C10        32.2394   -4.8632   -2.8309 C.ar      12 UNK        -0.0944 
     11 C11        32.1836   -4.9592   -4.2229 C.ar      12 UNK        -0.0787 
     12 C12        30.9402   -4.9930   -4.8610 C.ar      12 UNK        -0.0862 
     13 C13        29.7526   -4.9273   -4.1210 C.ar      12 UNK        -0.0733 
     14 C14        29.8275   -4.8705   -2.7238 C.ar      12 UNK        -0.0832 
     15 C15        28.3824   -4.9770   -4.7985 C.3       12 UNK         0.0240 
     16 S16        28.3066   -4.1886   -6.4455 S.3       12 UNK        -0.2522 
     17 C17        28.4260   -2.4090   -6.0590 C.3       12 UNK        -0.0967 
     18 CA         27.5493   -1.5733   -7.0262 C.3       5 UNK         0.0660 
     19 N          26.1167   -1.8411   -6.8715 N.am      5 UNK        -0.4015 
     20 C          25.1777   -1.4868   -7.7599 C.2       4 UNK         0.4946 
     21 O          25.4191   -0.9198   -8.8261 O.2       4 UNK        -0.5353 
     22 CA         23.7183   -1.7842   -7.3753 C.3       4 UNK         0.0277 
     23 CB         23.3837   -3.2655   -7.6142 C.3       4 UNK        -0.1981 
     24 N          23.4122   -1.4246   -5.9875 N.am      4 UNK        -0.4209 
     25 C          23.4229   -0.1696   -5.5153 C.2       3 UNK         0.4942 
     26 O          23.6539    0.8192   -6.2075 O.2       3 UNK        -0.5208 
     27 CA         23.1776    0.0205   -4.0090 C.3       3 UNK         0.0250 
     28 CB         21.6706    0.1025   -3.7178 C.3       3 UNK        -0.1990 
     29 N          23.7886   -1.0017   -3.1518 N.am      3 UNK        -0.4232 
     30 C          25.0803   -1.3591   -3.1581 C.2       2 UNK         0.4993 
     31 O          25.9127   -0.9383   -3.9664 O.2       2 UNK        -0.5286 
     32 CA         25.4934   -2.4088   -2.1155 C.3       2 UNK         0.0209 
     33 CB         25.0406   -3.8099   -2.5613 C.3       2 UNK        -0.1931 
     34 N          26.9425   -2.4214   -1.9019 N.am      2 UNK        -0.4546 
     35 C          27.6276   -1.4570   -1.2731 C.2       1 UNK         0.5154 
     36 O          27.1018   -0.4749   -0.7425 O.2       1 UNK        -0.5181 
     37 C          27.8424   -0.0669   -6.9086 C.2       5 UNK         0.5014 
     38 O          28.6269    0.4542   -7.7007 O.2       5 UNK        -0.5248 
     39 N          27.1732    0.6152   -5.9677 N.am      6 UNK        -0.4434 
     40 CA         27.2496    2.0650   -5.7814 C.3       6 UNK         0.0363 
     41 CB         26.5009    2.4663   -4.5016 C.3       6 UNK        -0.1936 
     42 C          26.7294    2.8496   -6.9984 C.2       6 UNK         0.5081 
     43 O          27.3971    3.7862   -7.4350 O.2       6 UNK        -0.5248 
     44 N          25.5828    2.4331   -7.5569 N.am      7 UNK        -0.4718 
     45 CA         24.9929    3.0011   -8.7753 C.3       7 UNK         0.0273 
     46 CB         23.5869    2.4202   -8.9932 C.3       7 UNK        -0.1935 
     47 C          25.8623    2.7864  -10.0254 C.2       7 UNK         0.5018 
     48 O          25.9416    3.6821  -10.8668 O.2       7 UNK        -0.5186 
     49 N          26.5241    1.6240  -10.1087 N.am      8 UNK        -0.4240 
     50 CA         27.5120    1.3009  -11.1422 C.3       8 UNK         0.0235 
     51 CB         27.7196   -0.2229  -11.1723 C.3       8 UNK        -0.2000 
     52 C          28.8637    2.0192  -10.9532 C.2       8 UNK         0.4941 
     53 O          29.6840    1.9821  -11.8713 O.2       8 UNK        -0.5273 
     54 N          29.0830    2.6274   -9.7758 N.am      9 UNK        -0.4262 
     55 CA         30.3287    3.2367   -9.2946 C.3       9 UNK         0.0264 
     56 CB         30.6953    4.4847  -10.1256 C.3       9 UNK        -0.1955 
     57 C          31.4807    2.2170   -9.1853 C.2       9 UNK         0.5031 
     58 O          32.6354    2.5575   -9.4528 O.2       9 UNK        -0.5390 
     59 N          31.1429    0.9812   -8.7999 N.am      10 UNK        -0.4204 
     60 CA         32.0692   -0.1315   -8.6324 C.3       10 UNK         0.0237 
     61 CB         31.3772   -1.4251   -9.0951 C.3       10 UNK        -0.1985 
     62 C          32.4780   -0.2490   -7.1606 C.2       10 UNK         0.4970 
     63 O          31.6402   -0.0590   -6.2770 O.2       10 UNK        -0.4914 
     64 N          33.7469   -0.6097   -6.9371 N.am      11 UNK        -0.4285 
     65 CA         34.3294   -0.9614   -5.6284 C.3       11 UNK         0.1007 
     66 C          34.4377    0.2135   -4.6083 C.2       11 UNK         0.5703 
     67 N          34.2908    1.4661   -5.0236 N.am      11 UNK        -0.7361 
     68 O          34.7024   -0.0070   -3.4287 O.2       11 UNK        -0.4986 
     69 C69        33.6837   -2.2360   -5.0099 C.3       12 UNK        -0.0947 
     70 S70        33.6736   -3.6467   -6.1695 S.3       12 UNK        -0.2240 
     71 C71        33.4696   -5.0502   -5.0327 C.3       12 UNK         0.0194 
     72 H72        30.2391   -0.8083   -3.8725 H         1 UNK         0.0906 
     73 H73        29.9380    0.8785   -4.2554 H         1 UNK         0.0906 
     74 H74        28.6235   -0.1104   -3.6358 H         1 UNK         0.0906 
     75 H75        30.1058   -0.0749   -0.1877 H         1 UNK         0.3140 
     76 H76        29.4791   -2.1729   -2.0931 H         1 UNK         0.1085 
     77 H77        28.8708   -3.4525    0.0402 H         1 UNK         0.0836 
     78 H78        29.2742   -2.0338    0.9593 H         1 UNK         0.0836 
     79 H79        32.0420   -5.3074   -0.2216 H         1 UNK         0.0731 
     80 H80        30.3074   -5.2934   -0.1004 H         1 UNK         0.0731 
     81 H81        33.1982   -4.8341   -2.3312 H         1 UNK         0.1312 
     82 H82        30.9057   -5.0716   -5.9387 H         1 UNK         0.1406 
     83 H83        28.9212   -4.8716   -2.1351 H         1 UNK         0.1631 
     84 H84        27.6265   -4.5192   -4.1621 H         1 UNK         0.0717 
     85 H85        28.0974   -6.0239   -4.9089 H         1 UNK         0.0717 
     86 H86        28.1362   -2.2322   -5.0220 H         1 UNK         0.0934 
     87 H87        29.4770   -2.1214   -6.1388 H         1 UNK         0.0934 
     88 H88        27.8225   -1.8585   -8.0447 H         1 UNK         0.0739 
     89 H89        25.8295   -2.2449   -5.9923 H         1 UNK         0.3093 
     90 H90        23.0789   -1.1821   -8.0248 H         1 UNK         0.0818 
     91 H91        23.5916   -3.5491   -8.6470 H         1 UNK         0.0819 
     92 H92        23.9687   -3.9250   -6.9717 H         1 UNK         0.0819 
     93 H93        22.3282   -3.4680   -7.4316 H         1 UNK         0.0819 
     94 H94        23.2060   -2.1775   -5.3477 H         1 UNK         0.3041 
     95 H95        23.6247    0.9756   -3.7285 H         1 UNK         0.0784 
     96 H96        21.1960    0.8703   -4.3310 H         1 UNK         0.0793 
     97 H97        21.1650   -0.8408   -3.9281 H         1 UNK         0.0793 
     98 H98        21.4801    0.3617   -2.6761 H         1 UNK         0.0793 
     99 H99        23.1788   -1.4231   -2.4655 H         1 UNK         0.3024 
    100 H100       25.0116   -2.1624   -1.1661 H         1 UNK         0.1171 
    101 H101       23.9527   -3.8741   -2.6065 H         1 UNK         0.0786 
    102 H102       25.4174   -4.0650   -3.5520 H         1 UNK         0.0786 
    103 H103       25.3749   -4.5788   -1.8643 H         1 UNK         0.0786 
    104 H104       27.4443   -3.1847   -2.3247 H         1 UNK         0.2977 
    105 H105       26.5735    0.0982   -5.3259 H         1 UNK         0.3127 
    106 H106       28.3032    2.3209   -5.6504 H         1 UNK         0.0770 
    107 H107       25.4342    2.2582   -4.5779 H         1 UNK         0.0814 
    108 H108       26.6109    3.5336   -4.3060 H         1 UNK         0.0814 
    109 H109       26.8851    1.9341   -3.6310 H         1 UNK         0.0814 
    110 H110       25.0535    1.6912   -7.1027 H         1 UNK         0.2983 
    111 H111       24.8973    4.0787   -8.6255 H         1 UNK         0.0947 
    112 H112       23.1290    2.8280   -9.8954 H         1 UNK         0.0806 
    113 H113       22.9268    2.6591   -8.1593 H         1 UNK         0.0806 
    114 H114       23.6119    1.3348   -9.0992 H         1 UNK         0.0806 
    115 H115       26.3492    0.9128   -9.4060 H         1 UNK         0.3000 
    116 H116       27.1115    1.6109  -12.1097 H         1 UNK         0.0850 
    117 H117       28.4120   -0.5094  -11.9650 H         1 UNK         0.0810 
    118 H118       26.7821   -0.7483  -11.3553 H         1 UNK         0.0810 
    119 H119       28.1312   -0.5910  -10.2321 H         1 UNK         0.0810 
    120 H120       28.3408    2.5878   -9.0876 H         1 UNK         0.3040 
    121 H121       30.1251    3.5685   -8.2755 H         1 UNK         0.0766 
    122 H122       30.9770    4.2245  -11.1463 H         1 UNK         0.0812 
    123 H123       31.5387    5.0148   -9.6819 H         1 UNK         0.0812 
    124 H124       29.8622    5.1858  -10.1747 H         1 UNK         0.0812 
    125 H125       30.1863    0.8126   -8.4842 H         1 UNK         0.3205 
    126 H126       32.9575    0.0266   -9.2478 H         1 UNK         0.0754 
    127 H127       32.0444   -2.2826   -8.9972 H         1 UNK         0.0769 
    128 H128       31.0783   -1.3613  -10.1416 H         1 UNK         0.0769 
    129 H129       30.4845   -1.6386   -8.5057 H         1 UNK         0.0769 
    130 H130       34.3636   -0.7300   -7.7271 H         1 UNK         0.2981 
    131 H131       35.3675   -1.2133   -5.8471 H         1 UNK         0.0541 
    132 H132       34.3749    2.2192   -4.3596 H         1 UNK         0.3459 
    133 H133       34.0769    1.6612   -5.9881 H         1 UNK         0.3459 
    134 H134       32.6575   -2.0376   -4.6957 H         1 UNK         0.0612 
    135 H135       34.2261   -2.5385   -4.1125 H         1 UNK         0.0612 
    136 H136       33.4603   -5.9739   -5.6127 H         1 UNK         0.0624 
    137 H137       34.3420   -5.1055   -4.3797 H         1 UNK         0.0624 
@<TRIPOS>BOND
     1    1    2 1    
     2    1   72 1    
     3    1   73 1    
     4    1   74 1    
     5    2    3 2    
     6    2    4 am   BACKBONE|DICT|INTERRES
     7    4    5 1    
     8    4   75 1    
     9    5    6 1    
    10    5   35 1    
    11    5   76 1    
    12    6    7 1    
    13    6   77 1    
    14    6   78 1    
    15    7    8 1    
    16    8    9 1    
    17    8   79 1    
    18    8   80 1    
    19    9   10 ar   
    20    9   14 ar   
    21   10   11 ar   
    22   10   81 1    
    23   11   12 ar   
    24   11   71 1    
    25   12   13 ar   
    26   12   82 1    
    27   13   14 ar   
    28   13   15 1    
    29   14   83 1    
    30   15   16 1    
    31   15   84 1    
    32   15   85 1    
    33   16   17 1    
    34   17   18 1    
    35   17   86 1    
    36   17   87 1    
    37   18   19 1    
    38   18   37 1    
    39   18   88 1    
    40   19   20 am   BACKBONE|DICT|INTERRES
    41   19   89 1    
    42   20   21 2    
    43   20   22 1    
    44   22   23 1    
    45   22   24 1    
    46   22   90 1    
    47   23   91 1    
    48   23   92 1    
    49   23   93 1    
    50   24   25 am   BACKBONE|DICT|INTERRES
    51   24   94 1    
    52   25   26 2    
    53   25   27 1    
    54   27   28 1    
    55   27   29 1    
    56   27   95 1    
    57   28   96 1    
    58   28   97 1    
    59   28   98 1    
    60   29   30 am   BACKBONE|DICT|INTERRES
    61   29   99 1    
    62   30   31 2    
    63   30   32 1    
    64   32   33 1    
    65   32   34 1    
    66   32  100 1    
    67   33  101 1    
    68   33  102 1    
    69   33  103 1    
    70   34   35 am   BACKBONE|DICT|INTERRES
    71   34  104 1    
    72   35   36 2    
    73   37   38 2    
    74   37   39 am   BACKBONE|DICT|INTERRES
    75   39   40 1    
    76   39  105 1    
    77   40   41 1    
    78   40   42 1    
    79   40  106 1    
    80   41  107 1    
    81   41  108 1    
    82   41  109 1    
    83   42   43 2    
    84   42   44 am   BACKBONE|DICT|INTERRES
    85   44   45 1    
    86   44  110 1    
    87   45   46 1    
    88   45   47 1    
    89   45  111 1    
    90   46  112 1    
    91   46  113 1    
    92   46  114 1    
    93   47   48 2    
    94   47   49 am   BACKBONE|DICT|INTERRES
    95   49   50 1    
    96   49  115 1    
    97   50   51 1    
    98   50   52 1    
    99   50  116 1    
   100   51  117 1    
   101   51  118 1    
   102   51  119 1    
   103   52   53 2    
   104   52   54 am   BACKBONE|DICT|INTERRES
   105   54   55 1    
   106   54  120 1    
   107   55   56 1    
   108   55   57 1    
   109   55  121 1    
   110   56  122 1    
   111   56  123 1    
   112   56  124 1    
   113   57   58 2    
   114   57   59 am   BACKBONE|DICT|INTERRES
   115   59   60 1    
   116   59  125 1    
   117   60   61 1    
   118   60   62 1    
   119   60  126 1    
   120   61  127 1    
   121   61  128 1    
   122   61  129 1    
   123   62   63 2    
   124   62   64 am   BACKBONE|DICT|INTERRES
   125   64   65 1    
   126   64  130 1    
   127   65   66 1    
   128   65   69 1    
   129   65  131 1    
   130   66   67 am   BACKBONE|DICT|INTERRES
   131   66   68 2    
   132   67  132 1    
   133   67  133 1    
   134   69   70 1    
   135   69  134 1    
   136   69  135 1    
   137   70   71 1    
   138   71  136 1    
   139   71  137 1    
@<TRIPOS>SUBSTRUCTURE
     1 UNK         1 GROUP             0       ****    0 ROOT    
