@<TRIPOS>MOLECULE
3R137
137   139    1
SMALL
USER_CHARGES


@<TRIPOS>ATOM
      1 CA         24.1542   -6.1397   -0.8184 C.3       0 UNK        -0.2020 
      2 C          25.2251   -5.1015   -1.1155 C.2       0 UNK         0.4855 
      3 O          25.5128   -4.8410   -2.2827 O.2       0 UNK        -0.5197 
      4 N          25.8036   -4.4971   -0.0681 N.am      1 UNK        -0.4892 
      5 CA         26.8740   -3.4908   -0.1241 C.3       1 UNK         0.0835 
      6 C6         28.2350   -4.0996   -0.5675 C.3       12 UNK        -0.0855 
      7 S7         29.6355   -3.3408    0.3184 S.3       12 UNK        -0.2931 
      8 C8         30.9757   -3.4772   -0.9107 C.3       12 UNK         0.0378 
      9 C9         30.8974   -2.4258   -2.0126 C.ar      12 UNK        -0.0802 
     10 C10        31.0014   -2.8045   -3.3543 C.ar      12 UNK        -0.0944 
     11 C11        30.9892   -1.8414   -4.3682 C.ar      12 UNK        -0.0787 
     12 C12        30.8855   -0.4887   -4.0323 C.ar      12 UNK        -0.0862 
     13 C13        30.7414   -0.0965   -2.6969 C.ar      12 UNK        -0.0733 
     14 C14        30.7648   -1.0704   -1.6940 C.ar      12 UNK        -0.0832 
     15 C15        30.5623    1.3707   -2.3130 C.3       12 UNK         0.0240 
     16 S16        29.3189    2.2685   -3.3083 S.3       12 UNK        -0.2522 
     17 C17        27.8763    1.1438   -3.3086 C.3       12 UNK        -0.0967 
     18 CA         27.6525    0.5183   -4.7126 C.3       5 UNK         0.0660 
     19 N          27.2257   -0.8854   -4.6506 N.am      5 UNK        -0.4015 
     20 C          27.2544   -1.7385   -5.6871 C.2       4 UNK         0.4946 
     21 O          27.6356   -1.4258   -6.8161 O.2       4 UNK        -0.5353 
     22 CA         26.7142   -3.1572   -5.4410 C.3       4 UNK         0.0277 
     23 CB         27.7756   -4.0423   -4.7727 C.3       4 UNK        -0.1981 
     24 N          25.4957   -3.1429   -4.6292 N.am      4 UNK        -0.4209 
     25 C          24.3174   -2.6668   -5.0575 C.2       3 UNK         0.4942 
     26 O          24.1141   -2.2876   -6.2096 O.2       3 UNK        -0.5208 
     27 CA         23.1897   -2.5430   -4.0211 C.3       3 UNK         0.0250 
     28 CB         22.4627   -3.8835   -3.8281 C.3       3 UNK        -0.1990 
     29 N          23.6780   -2.0401   -2.7350 N.am      3 UNK        -0.4232 
     30 C          24.1329   -0.7936   -2.5352 C.2       2 UNK         0.4993 
     31 O          24.1328    0.0827   -3.3992 O.2       2 UNK        -0.5286 
     32 CA         24.7110   -0.4723   -1.1461 C.3       2 UNK         0.0209 
     33 CB         23.6226    0.1120   -0.2316 C.3       2 UNK        -0.1931 
     34 N          25.3325   -1.6272   -0.4896 N.am      2 UNK        -0.4546 
     35 C          26.4378   -2.2458   -0.9307 C.2       1 UNK         0.5154 
     36 O          27.0366   -1.9042   -1.9521 O.2       1 UNK        -0.5181 
     37 C          26.7865    1.4141   -5.6280 C.2       5 UNK         0.5014 
     38 O          27.2234    2.5144   -5.9674 O.2       5 UNK        -0.5248 
     39 N          25.6244    0.9265   -6.0914 N.am      6 UNK        -0.4434 
     40 CA         24.8110    1.5559   -7.1397 C.3       6 UNK         0.0363 
     41 CB         23.4975    0.7782   -7.3092 C.3       6 UNK        -0.1936 
     42 C          25.5384    1.6936   -8.4953 C.2       6 UNK         0.5081 
     43 O          25.1223    2.5118   -9.3156 O.2       6 UNK        -0.5248 
     44 N          26.6291    0.9355   -8.6962 N.am      7 UNK        -0.4718 
     45 CA         27.5815    1.1038   -9.7985 C.3       7 UNK         0.0273 
     46 CB         28.5494   -0.0919   -9.8062 C.3       7 UNK        -0.1935 
     47 C          28.3783    2.4246   -9.7387 C.2       7 UNK         0.5018 
     48 O          28.9474    2.8177  -10.7567 O.2       7 UNK        -0.5186 
     49 N          28.4290    3.0707   -8.5620 N.am      8 UNK        -0.4240 
     50 CA         29.0955    4.3359   -8.2179 C.3       8 UNK         0.0235 
     51 CB         28.5884    5.5030   -9.0877 C.3       8 UNK        -0.2000 
     52 C          30.6341    4.2829   -8.1986 C.2       8 UNK         0.4941 
     53 O          31.2389    4.9345   -7.3459 O.2       8 UNK        -0.5273 
     54 N          31.2449    3.5180   -9.1068 N.am      9 UNK        -0.4262 
     55 CA         32.6829    3.2964   -9.2155 C.3       9 UNK         0.0264 
     56 CB         33.3289    4.4481  -10.0084 C.3       9 UNK        -0.1955 
     57 C          32.9238    1.9494   -9.9049 C.2       9 UNK         0.5031 
     58 O          32.0082    1.4113  -10.5329 O.2       9 UNK        -0.5390 
     59 N          34.1509    1.4271   -9.7723 N.am      10 UNK        -0.4204 
     60 CA         34.7134    0.2163  -10.3979 C.3       10 UNK         0.0237 
     61 CB         34.7613    0.3696  -11.9317 C.3       10 UNK        -0.1985 
     62 C          34.0662   -1.1304  -10.0102 C.2       10 UNK         0.4970 
     63 O          34.7443   -2.1536  -10.1104 O.2       10 UNK        -0.4914 
     64 N          32.7956   -1.1180   -9.5905 N.am      11 UNK        -0.4285 
     65 CA         31.9665   -2.2847   -9.2417 C.3       11 UNK         0.1007 
     66 C          31.5778   -3.1757  -10.4616 C.2       11 UNK         0.5703 
     67 N          31.6672   -2.6834  -11.6921 N.am      11 UNK        -0.7361 
     68 O          31.1572   -4.3186  -10.2965 O.2       11 UNK        -0.4986 
     69 C69        32.5205   -3.1069   -8.0400 C.3       12 UNK        -0.0947 
     70 S70        32.7214   -2.1208   -6.5173 S.3       12 UNK        -0.2240 
     71 C71        31.0481   -2.2681   -5.8262 C.3       12 UNK         0.0194 
     72 H72        24.3961   -7.0782   -1.3165 H         1 UNK         0.0906 
     73 H73        24.0622   -6.3381    0.2492 H         1 UNK         0.0906 
     74 H74        23.1869   -5.7989   -1.1857 H         1 UNK         0.0906 
     75 H75        25.5054   -4.7515    0.8642 H         1 UNK         0.3140 
     76 H76        26.9828   -3.1471    0.9063 H         1 UNK         0.1085 
     77 H77        28.3811   -4.0403   -1.6458 H         1 UNK         0.0836 
     78 H78        28.2645   -5.1648   -0.3329 H         1 UNK         0.0836 
     79 H79        30.9744   -4.4855   -1.3281 H         1 UNK         0.0731 
     80 H80        31.9303   -3.3614   -0.3958 H         1 UNK         0.0731 
     81 H81        31.0955   -3.8505   -3.6122 H         1 UNK         0.1312 
     82 H82        30.8881    0.2576   -4.8145 H         1 UNK         0.1406 
     83 H83        30.6775   -0.7763   -0.6569 H         1 UNK         0.1631 
     84 H84        31.5223    1.8787   -2.4115 H         1 UNK         0.0717 
     85 H85        30.2757    1.4576   -1.2638 H         1 UNK         0.0717 
     86 H86        28.0499    0.3714   -2.5599 H         1 UNK         0.0934 
     87 H87        26.9931    1.6857   -2.9647 H         1 UNK         0.0934 
     88 H88        28.6169    0.4817   -5.2198 H         1 UNK         0.0739 
     89 H89        26.9651   -1.2423   -3.7338 H         1 UNK         0.3093 
     90 H90        26.4668   -3.5971   -6.4096 H         1 UNK         0.0818 
     91 H91        28.6190   -4.2057   -5.4423 H         1 UNK         0.0819 
     92 H92        28.1625   -3.5852   -3.8627 H         1 UNK         0.0819 
     93 H93        27.3747   -5.0222   -4.5126 H         1 UNK         0.0819 
     94 H94        25.5685   -3.5076   -3.6819 H         1 UNK         0.3041 
     95 H95        22.4656   -1.8213   -4.4061 H         1 UNK         0.0784 
     96 H96        22.0281   -4.2248   -4.7687 H         1 UNK         0.0793 
     97 H97        23.1353   -4.6678   -3.4821 H         1 UNK         0.0793 
     98 H98        21.6479   -3.7954   -3.1093 H         1 UNK         0.0793 
     99 H99        23.7417   -2.7020   -1.9761 H         1 UNK         0.3024 
    100 H100       25.4835    0.2871   -1.2872 H         1 UNK         0.1171 
    101 H101       24.0363    0.4293    0.7258 H         1 UNK         0.0786 
    102 H102       23.1594    0.9882   -0.6880 H         1 UNK         0.0786 
    103 H103       22.8291   -0.6098   -0.0335 H         1 UNK         0.0786 
    104 H104       24.8782   -1.9807    0.3405 H         1 UNK         0.2977 
    105 H105       25.3096    0.0273   -5.7521 H         1 UNK         0.3127 
    106 H106       24.5682    2.5643   -6.7983 H         1 UNK         0.0770 
    107 H107       23.6691   -0.2100   -7.7364 H         1 UNK         0.0814 
    108 H108       22.8185    1.3058   -7.9802 H         1 UNK         0.0814 
    109 H109       22.9810    0.6506   -6.3574 H         1 UNK         0.0814 
    110 H110       26.8788    0.2520   -7.9889 H         1 UNK         0.2983 
    111 H111       27.0201    1.1041  -10.7352 H         1 UNK         0.0947 
    112 H112       29.1288   -0.1441   -8.8835 H         1 UNK         0.0806 
    113 H113       28.0162   -1.0360   -9.9194 H         1 UNK         0.0806 
    114 H114       29.2592   -0.0184  -10.6320 H         1 UNK         0.0806 
    115 H115       27.9359    2.6510   -7.7782 H         1 UNK         0.3000 
    116 H116       28.7883    4.5432   -7.1912 H         1 UNK         0.0850 
    117 H117       28.9947    6.4524   -8.7366 H         1 UNK         0.0810 
    118 H118       27.5018    5.5814   -9.0510 H         1 UNK         0.0810 
    119 H119       28.8829    5.3938  -10.1318 H         1 UNK         0.0810 
    120 H120       30.6802    3.0091   -9.7840 H         1 UNK         0.3040 
    121 H121       33.1153    3.2495   -8.2136 H         1 UNK         0.0766 
    122 H122       33.1753    5.4070   -9.5130 H         1 UNK         0.0812 
    123 H123       32.9148    4.5225  -11.0149 H         1 UNK         0.0812 
    124 H124       34.4057    4.3069  -10.1075 H         1 UNK         0.0812 
    125 H125       34.8049    1.9364   -9.1928 H         1 UNK         0.3205 
    126 H126       35.7445    0.1615  -10.0449 H         1 UNK         0.0754 
    127 H127       35.2642   -0.4807  -12.3947 H         1 UNK         0.0769 
    128 H128       35.3089    1.2658  -12.2232 H         1 UNK         0.0769 
    129 H129       33.7632    0.4310  -12.3667 H         1 UNK         0.0769 
    130 H130       32.3076   -0.2298   -9.6552 H         1 UNK         0.2981 
    131 H131       31.0150   -1.8628   -8.9181 H         1 UNK         0.0541 
    132 H132       31.9893   -1.7413  -11.8439 H         1 UNK         0.3459 
    133 H133       31.4038   -3.2612  -12.4746 H         1 UNK         0.3459 
    134 H134       31.8667   -3.9508   -7.8144 H         1 UNK         0.0612 
    135 H135       33.4859   -3.5487   -8.2884 H         1 UNK         0.0612 
    136 H136       30.3623   -1.6616   -6.4192 H         1 UNK         0.0624 
    137 H137       30.7089   -3.2996   -5.9209 H         1 UNK         0.0624 
@<TRIPOS>BOND
     1    1    2 1    
     2    1   72 1    
     3    1   73 1    
     4    1   74 1    
     5    2    3 2    
     6    2    4 am   BACKBONE|DICT|INTERRES
     7    4    5 1    
     8    4   75 1    
     9    5    6 1    
    10    5   35 1    
    11    5   76 1    
    12    6    7 1    
    13    6   77 1    
    14    6   78 1    
    15    7    8 1    
    16    8    9 1    
    17    8   79 1    
    18    8   80 1    
    19    9   10 ar   
    20    9   14 ar   
    21   10   11 ar   
    22   10   81 1    
    23   11   12 ar   
    24   11   71 1    
    25   12   13 ar   
    26   12   82 1    
    27   13   14 ar   
    28   13   15 1    
    29   14   83 1    
    30   15   16 1    
    31   15   84 1    
    32   15   85 1    
    33   16   17 1    
    34   17   18 1    
    35   17   86 1    
    36   17   87 1    
    37   18   19 1    
    38   18   37 1    
    39   18   88 1    
    40   19   20 am   BACKBONE|DICT|INTERRES
    41   19   89 1    
    42   20   21 2    
    43   20   22 1    
    44   22   23 1    
    45   22   24 1    
    46   22   90 1    
    47   23   91 1    
    48   23   92 1    
    49   23   93 1    
    50   24   25 am   BACKBONE|DICT|INTERRES
    51   24   94 1    
    52   25   26 2    
    53   25   27 1    
    54   27   28 1    
    55   27   29 1    
    56   27   95 1    
    57   28   96 1    
    58   28   97 1    
    59   28   98 1    
    60   29   30 am   BACKBONE|DICT|INTERRES
    61   29   99 1    
    62   30   31 2    
    63   30   32 1    
    64   32   33 1    
    65   32   34 1    
    66   32  100 1    
    67   33  101 1    
    68   33  102 1    
    69   33  103 1    
    70   34   35 am   BACKBONE|DICT|INTERRES
    71   34  104 1    
    72   35   36 2    
    73   37   38 2    
    74   37   39 am   BACKBONE|DICT|INTERRES
    75   39   40 1    
    76   39  105 1    
    77   40   41 1    
    78   40   42 1    
    79   40  106 1    
    80   41  107 1    
    81   41  108 1    
    82   41  109 1    
    83   42   43 2    
    84   42   44 am   BACKBONE|DICT|INTERRES
    85   44   45 1    
    86   44  110 1    
    87   45   46 1    
    88   45   47 1    
    89   45  111 1    
    90   46  112 1    
    91   46  113 1    
    92   46  114 1    
    93   47   48 2    
    94   47   49 am   BACKBONE|DICT|INTERRES
    95   49   50 1    
    96   49  115 1    
    97   50   51 1    
    98   50   52 1    
    99   50  116 1    
   100   51  117 1    
   101   51  118 1    
   102   51  119 1    
   103   52   53 2    
   104   52   54 am   BACKBONE|DICT|INTERRES
   105   54   55 1    
   106   54  120 1    
   107   55   56 1    
   108   55   57 1    
   109   55  121 1    
   110   56  122 1    
   111   56  123 1    
   112   56  124 1    
   113   57   58 2    
   114   57   59 am   BACKBONE|DICT|INTERRES
   115   59   60 1    
   116   59  125 1    
   117   60   61 1    
   118   60   62 1    
   119   60  126 1    
   120   61  127 1    
   121   61  128 1    
   122   61  129 1    
   123   62   63 2    
   124   62   64 am   BACKBONE|DICT|INTERRES
   125   64   65 1    
   126   64  130 1    
   127   65   66 1    
   128   65   69 1    
   129   65  131 1    
   130   66   67 am   BACKBONE|DICT|INTERRES
   131   66   68 2    
   132   67  132 1    
   133   67  133 1    
   134   69   70 1    
   135   69  134 1    
   136   69  135 1    
   137   70   71 1    
   138   71  136 1    
   139   71  137 1    
@<TRIPOS>SUBSTRUCTURE
     1 UNK         1 GROUP             0       ****    0 ROOT    
