@<TRIPOS>MOLECULE
3R137
137   139    1
SMALL
USER_CHARGES


@<TRIPOS>ATOM
      1 CA         23.1407   -5.7365   -2.0689 C.3       0 UNK        -0.2020 
      2 C          24.4037   -4.9420   -2.3623 C.2       0 UNK         0.4855 
      3 O          24.5206   -4.3673   -3.4450 O.2       0 UNK        -0.5197 
      4 N          25.3376   -4.8917   -1.3989 N.am      1 UNK        -0.4892 
      5 CA         26.6347   -4.2017   -1.4770 C.3       1 UNK         0.0835 
      6 C6         27.6246   -4.9464   -2.4158 C.3       12 UNK        -0.0855 
      7 S7         29.3722   -4.4567   -2.1862 S.3       12 UNK        -0.2931 
      8 C8         29.7928   -3.8092   -3.8439 C.3       12 UNK         0.0378 
      9 C9         30.6399   -2.5437   -3.8081 C.ar      12 UNK        -0.0802 
     10 C10        31.7160   -2.3911   -4.6874 C.ar      12 UNK        -0.0944 
     11 C11        32.4613   -1.2065   -4.7037 C.ar      12 UNK        -0.0787 
     12 C12        32.1135   -0.1629   -3.8407 C.ar      12 UNK        -0.0862 
     13 C13        31.0248   -0.2948   -2.9747 C.ar      12 UNK        -0.0733 
     14 C14        30.3042   -1.4906   -2.9541 C.ar      12 UNK        -0.0832 
     15 C15        30.6123    0.8583   -2.0735 C.3       12 UNK         0.0240 
     16 S16        29.5530    2.0537   -2.9506 S.3       12 UNK        -0.2522 
     17 C17        28.0359    1.0869   -3.2633 C.3       12 UNK        -0.0967 
     18 CA         27.7784    0.8359   -4.7749 C.3       5 UNK         0.0660 
     19 N          27.0227   -0.4027   -5.0188 N.am      5 UNK        -0.4015 
     20 C          26.6800   -0.8790   -6.2277 C.2       4 UNK         0.4946 
     21 O          27.0409   -0.3763   -7.2902 O.2       4 UNK        -0.5353 
     22 CA         25.7162   -2.0781   -6.2793 C.3       4 UNK         0.0277 
     23 CB         26.4649   -3.4123   -6.2009 C.3       4 UNK        -0.1981 
     24 N          24.6855   -2.0224   -5.2425 N.am      4 UNK        -0.4209 
     25 C          23.7164   -1.0969   -5.2068 C.2       3 UNK         0.4942 
     26 O          23.5468   -0.2493   -6.0829 O.2       3 UNK        -0.5208 
     27 CA         22.8280   -1.0734   -3.9540 C.3       3 UNK         0.0250 
     28 CB         21.7559   -2.1736   -4.0102 C.3       3 UNK        -0.1990 
     29 N          23.6156   -1.1961   -2.7248 N.am      3 UNK        -0.4232 
     30 C          24.4870   -0.2711   -2.2964 C.2       2 UNK         0.4993 
     31 O          24.6818    0.8011   -2.8692 O.2       2 UNK        -0.5286 
     32 CA         25.3058   -0.6079   -1.0386 C.3       2 UNK         0.0209 
     33 CB         24.5552   -0.1611    0.2258 C.3       2 UNK        -0.1931 
     34 N          25.6567   -2.0276   -0.9243 N.am      2 UNK        -0.4546 
     35 C          26.4421   -2.6967   -1.7823 C.2       1 UNK         0.5154 
     36 O          26.9330   -2.1826   -2.7885 O.2       1 UNK        -0.5181 
     37 C          27.0949    2.0615   -5.4181 C.2       5 UNK         0.5014 
     38 O          27.7463    2.8241   -6.1335 O.2       5 UNK        -0.5248 
     39 N          25.7855    2.2103   -5.1663 N.am      6 UNK        -0.4434 
     40 CA         24.9442    3.2624   -5.7380 C.3       6 UNK         0.0363 
     41 CB         23.5684    3.2470   -5.0531 C.3       6 UNK        -0.1936 
     42 C          24.7943    3.1558   -7.2658 C.2       6 UNK         0.5081 
     43 O          24.7525    4.1883   -7.9358 O.2       6 UNK        -0.5248 
     44 N          24.7148    1.9237   -7.7880 N.am      7 UNK        -0.4718 
     45 CA         24.6266    1.6367   -9.2197 C.3       7 UNK         0.0273 
     46 CB         24.1820    0.1812   -9.4393 C.3       7 UNK        -0.1935 
     47 C          25.9367    1.9373   -9.9669 C.2       7 UNK         0.5018 
     48 O          25.9119    2.7121  -10.9247 O.2       7 UNK        -0.5186 
     49 N          27.0468    1.3261   -9.5305 N.am      8 UNK        -0.4240 
     50 CA         28.3642    1.4437  -10.1532 C.3       8 UNK         0.0235 
     51 CB         28.3838    0.7551  -11.5369 C.3       8 UNK        -0.2000 
     52 C          29.4299    0.8482   -9.2247 C.2       8 UNK         0.4941 
     53 O          29.7327   -0.3440   -9.3229 O.2       8 UNK        -0.5273 
     54 N          30.0165    1.6870   -8.3614 N.am      9 UNK        -0.4262 
     55 CA         31.1521    1.3540   -7.4927 C.3       9 UNK         0.0264 
     56 CB         31.2627    2.4233   -6.3898 C.3       9 UNK        -0.1955 
     57 C          32.4685    1.2094   -8.2887 C.2       9 UNK         0.5031 
     58 O          33.3958    1.9967   -8.0919 O.2       9 UNK        -0.5390 
     59 N          32.5118    0.2288   -9.1998 N.am      10 UNK        -0.4204 
     60 CA         33.6296   -0.0402  -10.1058 C.3       10 UNK         0.0237 
     61 CB         33.1717   -0.9906  -11.2268 C.3       10 UNK        -0.1985 
     62 C          34.8727   -0.5713   -9.3730 C.2       10 UNK         0.4970 
     63 O          35.8951    0.1147   -9.3502 O.2       10 UNK        -0.4914 
     64 N          34.7600   -1.7789   -8.7975 N.am      11 UNK        -0.4285 
     65 CA         35.8231   -2.4847   -8.0526 C.3       11 UNK         0.1007 
     66 C          37.0934   -2.8314   -8.8952 C.2       11 UNK         0.5703 
     67 N          37.0117   -2.8774  -10.2201 N.am      11 UNK        -0.7361 
     68 O          38.1599   -3.1051   -8.3490 O.2       11 UNK        -0.4986 
     69 C69        36.1400   -1.7989   -6.6859 C.3       12 UNK        -0.0947 
     70 S70        34.9381   -2.2419   -5.3885 S.3       12 UNK        -0.2240 
     71 C71        33.6096   -1.0391   -5.6870 C.3       12 UNK         0.0194 
     72 H72        22.2688   -5.0844   -2.1117 H         1 UNK         0.0906 
     73 H73        23.0139   -6.5228   -2.8125 H         1 UNK         0.0906 
     74 H74        23.1691   -6.2024   -1.0842 H         1 UNK         0.0906 
     75 H75        25.1633   -5.3772   -0.5289 H         1 UNK         0.3140 
     76 H76        27.0563   -4.2458   -0.4711 H         1 UNK         0.1085 
     77 H77        27.3181   -4.8546   -3.4559 H         1 UNK         0.0836 
     78 H78        27.5784   -6.0158   -2.2046 H         1 UNK         0.0836 
     79 H79        28.8896   -3.5608   -4.3949 H         1 UNK         0.0731 
     80 H80        30.2926   -4.5982   -4.4078 H         1 UNK         0.0731 
     81 H81        31.9725   -3.1904   -5.3694 H         1 UNK         0.1312 
     82 H82        32.6740    0.7616   -3.8554 H         1 UNK         0.1406 
     83 H83        29.4623   -1.6001   -2.2855 H         1 UNK         0.1631 
     84 H84        31.5014    1.3759   -1.7104 H         1 UNK         0.0717 
     85 H85        30.0918    0.4905   -1.1877 H         1 UNK         0.0717 
     86 H86        28.1102    0.1435   -2.7288 H         1 UNK         0.0934 
     87 H87        27.2006    1.6063   -2.7909 H         1 UNK         0.0934 
     88 H88        28.7397    0.6923   -5.2729 H         1 UNK         0.0739 
     89 H89        26.7563   -0.9425   -4.1989 H         1 UNK         0.3093 
     90 H90        25.2123   -2.0444   -7.2469 H         1 UNK         0.0818 
     91 H91        27.3068   -3.4396   -6.8942 H         1 UNK         0.0819 
     92 H92        26.8482   -3.5795   -5.1994 H         1 UNK         0.0819 
     93 H93        25.8088   -4.2475   -6.4461 H         1 UNK         0.0819 
     94 H94        24.7391   -2.7141   -4.4984 H         1 UNK         0.3041 
     95 H95        22.3191   -0.1072   -3.9285 H         1 UNK         0.0784 
     96 H96        21.1349   -2.0627   -4.9001 H         1 UNK         0.0793 
     97 H97        22.1941   -3.1711   -4.0443 H         1 UNK         0.0793 
     98 H98        21.0930   -2.1267   -3.1461 H         1 UNK         0.0793 
     99 H99        23.5436   -2.0640   -2.2150 H         1 UNK         0.3024 
    100 H100       26.2367   -0.0409   -1.0965 H         1 UNK         0.1171 
    101 H101       25.1633   -0.3024    1.1195 H         1 UNK         0.0786 
    102 H102       24.3014    0.8988    0.1741 H         1 UNK         0.0786 
    103 H103       23.6240   -0.7128    0.3612 H         1 UNK         0.0786 
    104 H104       25.2671   -2.5300   -0.1394 H         1 UNK         0.2977 
    105 H105       25.3351    1.5677   -4.5182 H         1 UNK         0.3127 
    106 H106       25.4215    4.2202   -5.5206 H         1 UNK         0.0770 
    107 H107       23.0476    2.3027   -5.2152 H         1 UNK         0.0814 
    108 H108       22.9308    4.0429   -5.4398 H         1 UNK         0.0814 
    109 H109       23.6594    3.3967   -3.9770 H         1 UNK         0.0814 
    110 H110       24.6908    1.1298   -7.1566 H         1 UNK         0.2983 
    111 H111       23.8534    2.2839   -9.6399 H         1 UNK         0.0947 
    112 H112       24.9105   -0.5296   -9.0508 H         1 UNK         0.0806 
    113 H113       24.0567   -0.0306  -10.5019 H         1 UNK         0.0806 
    114 H114       23.2271   -0.0196   -8.9530 H         1 UNK         0.0806 
    115 H115       26.9984    0.7183   -8.7096 H         1 UNK         0.3000 
    116 H116       28.5899    2.5029  -10.2942 H         1 UNK         0.0850 
    117 H117       29.3895    0.7568  -11.9597 H         1 UNK         0.0810 
    118 H118       27.7377    1.2632  -12.2523 H         1 UNK         0.0810 
    119 H119       28.0587   -0.2841  -11.4728 H         1 UNK         0.0810 
    120 H120       29.6921    2.6431   -8.3212 H         1 UNK         0.3040 
    121 H121       30.9513    0.3950   -7.0095 H         1 UNK         0.0766 
    122 H122       30.3600    2.4651   -5.7838 H         1 UNK         0.0812 
    123 H123       31.4307    3.4177   -6.8048 H         1 UNK         0.0812 
    124 H124       32.0918    2.2086   -5.7154 H         1 UNK         0.0812 
    125 H125       31.6635   -0.3197   -9.3229 H         1 UNK         0.3205 
    126 H126       33.9100    0.9064  -10.5731 H         1 UNK         0.0754 
    127 H127       33.9944   -1.2221  -11.9049 H         1 UNK         0.0769 
    128 H128       32.3809   -0.5373  -11.8254 H         1 UNK         0.0769 
    129 H129       32.7895   -1.9351  -10.8381 H         1 UNK         0.0769 
    130 H130       33.8876   -2.2777   -8.8879 H         1 UNK         0.2981 
    131 H131       35.4087   -3.4690   -7.8321 H         1 UNK         0.0541 
    132 H132       36.1431   -2.6762  -10.6878 H         1 UNK         0.3459 
    133 H133       37.8315   -3.1154  -10.7557 H         1 UNK         0.3459 
    134 H134       37.1098   -2.1113   -6.2968 H         1 UNK         0.0612 
    135 H135       36.2019   -0.7142   -6.7818 H         1 UNK         0.0612 
    136 H136       34.0203   -0.0289   -5.6459 H         1 UNK         0.0624 
    137 H137       33.2173   -1.1809   -6.6922 H         1 UNK         0.0624 
@<TRIPOS>BOND
     1    1    2 1    
     2    1   72 1    
     3    1   73 1    
     4    1   74 1    
     5    2    3 2    
     6    2    4 am   BACKBONE|DICT|INTERRES
     7    4    5 1    
     8    4   75 1    
     9    5    6 1    
    10    5   35 1    
    11    5   76 1    
    12    6    7 1    
    13    6   77 1    
    14    6   78 1    
    15    7    8 1    
    16    8    9 1    
    17    8   79 1    
    18    8   80 1    
    19    9   10 ar   
    20    9   14 ar   
    21   10   11 ar   
    22   10   81 1    
    23   11   12 ar   
    24   11   71 1    
    25   12   13 ar   
    26   12   82 1    
    27   13   14 ar   
    28   13   15 1    
    29   14   83 1    
    30   15   16 1    
    31   15   84 1    
    32   15   85 1    
    33   16   17 1    
    34   17   18 1    
    35   17   86 1    
    36   17   87 1    
    37   18   19 1    
    38   18   37 1    
    39   18   88 1    
    40   19   20 am   BACKBONE|DICT|INTERRES
    41   19   89 1    
    42   20   21 2    
    43   20   22 1    
    44   22   23 1    
    45   22   24 1    
    46   22   90 1    
    47   23   91 1    
    48   23   92 1    
    49   23   93 1    
    50   24   25 am   BACKBONE|DICT|INTERRES
    51   24   94 1    
    52   25   26 2    
    53   25   27 1    
    54   27   28 1    
    55   27   29 1    
    56   27   95 1    
    57   28   96 1    
    58   28   97 1    
    59   28   98 1    
    60   29   30 am   BACKBONE|DICT|INTERRES
    61   29   99 1    
    62   30   31 2    
    63   30   32 1    
    64   32   33 1    
    65   32   34 1    
    66   32  100 1    
    67   33  101 1    
    68   33  102 1    
    69   33  103 1    
    70   34   35 am   BACKBONE|DICT|INTERRES
    71   34  104 1    
    72   35   36 2    
    73   37   38 2    
    74   37   39 am   BACKBONE|DICT|INTERRES
    75   39   40 1    
    76   39  105 1    
    77   40   41 1    
    78   40   42 1    
    79   40  106 1    
    80   41  107 1    
    81   41  108 1    
    82   41  109 1    
    83   42   43 2    
    84   42   44 am   BACKBONE|DICT|INTERRES
    85   44   45 1    
    86   44  110 1    
    87   45   46 1    
    88   45   47 1    
    89   45  111 1    
    90   46  112 1    
    91   46  113 1    
    92   46  114 1    
    93   47   48 2    
    94   47   49 am   BACKBONE|DICT|INTERRES
    95   49   50 1    
    96   49  115 1    
    97   50   51 1    
    98   50   52 1    
    99   50  116 1    
   100   51  117 1    
   101   51  118 1    
   102   51  119 1    
   103   52   53 2    
   104   52   54 am   BACKBONE|DICT|INTERRES
   105   54   55 1    
   106   54  120 1    
   107   55   56 1    
   108   55   57 1    
   109   55  121 1    
   110   56  122 1    
   111   56  123 1    
   112   56  124 1    
   113   57   58 2    
   114   57   59 am   BACKBONE|DICT|INTERRES
   115   59   60 1    
   116   59  125 1    
   117   60   61 1    
   118   60   62 1    
   119   60  126 1    
   120   61  127 1    
   121   61  128 1    
   122   61  129 1    
   123   62   63 2    
   124   62   64 am   BACKBONE|DICT|INTERRES
   125   64   65 1    
   126   64  130 1    
   127   65   66 1    
   128   65   69 1    
   129   65  131 1    
   130   66   67 am   BACKBONE|DICT|INTERRES
   131   66   68 2    
   132   67  132 1    
   133   67  133 1    
   134   69   70 1    
   135   69  134 1    
   136   69  135 1    
   137   70   71 1    
   138   71  136 1    
   139   71  137 1    
@<TRIPOS>SUBSTRUCTURE
     1 UNK         1 GROUP             0       ****    0 ROOT    
