@<TRIPOS>MOLECULE
3R137
137   139    1
SMALL
USER_CHARGES


@<TRIPOS>ATOM
      1 CA         25.0649   -6.5377   -3.1433 C.3       0 UNK        -0.2020 
      2 C          25.8310   -5.7893   -2.0627 C.2       0 UNK         0.4855 
      3 O          25.3440   -5.6691   -0.9388 O.2       0 UNK        -0.5197 
      4 N          27.0232   -5.2757   -2.3967 N.am      1 UNK        -0.4892 
      5 CA         27.8994   -4.5214   -1.4848 C.3       1 UNK         0.0835 
      6 C6         29.3731   -4.5211   -1.9863 C.3       12 UNK        -0.0855 
      7 S7         30.5615   -5.1317   -0.7354 S.3       12 UNK        -0.2931 
      8 C8         31.2265   -3.6107    0.0264 C.3       12 UNK         0.0378 
      9 C9         31.8022   -2.6487   -1.0024 C.ar      12 UNK        -0.0802 
     10 C10        32.9777   -2.9583   -1.6943 C.ar      12 UNK        -0.0944 
     11 C11        33.4435   -2.1147   -2.7090 C.ar      12 UNK        -0.0787 
     12 C12        32.7381   -0.9476   -3.0137 C.ar      12 UNK        -0.0862 
     13 C13        31.5683   -0.6266   -2.3218 C.ar      12 UNK        -0.0733 
     14 C14        31.1190   -1.4680   -1.3016 C.ar      12 UNK        -0.0832 
     15 C15        30.7330    0.5748   -2.7272 C.3       12 UNK         0.0240 
     16 S16        29.2111   -0.0132   -3.5214 S.3       12 UNK        -0.2522 
     17 C17        28.3712    1.5323   -3.9984 C.3       12 UNK        -0.0967 
     18 CA         27.9797    1.5384   -5.4989 C.3       5 UNK         0.0660 
     19 N          27.3960    0.2703   -5.9418 N.am      5 UNK        -0.4015 
     20 C          27.3176   -0.1468   -7.2095 C.2       4 UNK         0.4946 
     21 O          27.7551    0.4949   -8.1642 O.2       4 UNK        -0.5353 
     22 CA         26.6570   -1.5128   -7.4575 C.3       4 UNK         0.0277 
     23 CB         27.7289   -2.6123   -7.5113 C.3       4 UNK        -0.1981 
     24 N          25.6518   -1.8568   -6.4477 N.am      4 UNK        -0.4209 
     25 C          24.4897   -1.2072   -6.2900 C.2       3 UNK         0.4942 
     26 O          24.1223   -0.2790   -7.0099 O.2       3 UNK        -0.5208 
     27 CA         23.6281   -1.6224   -5.0848 C.3       3 UNK         0.0250 
     28 CB         22.8231   -2.8926   -5.4042 C.3       3 UNK        -0.1990 
     29 N          24.3950   -1.8210   -3.8464 N.am      3 UNK        -0.4232 
     30 C          25.1536   -0.8818   -3.2580 C.2       2 UNK         0.4993 
     31 O          25.3317    0.2409   -3.7298 O.2       2 UNK        -0.5286 
     32 CA         25.8513   -1.2627   -1.9472 C.3       2 UNK         0.0209 
     33 CB         24.8671   -1.1760   -0.7646 C.3       2 UNK        -0.1931 
     34 N          26.4558   -2.5943   -2.0379 N.am      2 UNK        -0.4546 
     35 C          27.3871   -3.0863   -1.2074 C.2       1 UNK         0.5154 
     36 O          27.8425   -2.4577   -0.2512 O.2       1 UNK        -0.5181 
     37 C          27.0144    2.6911   -5.8181 C.2       5 UNK         0.5014 
     38 O          27.4427    3.7082   -6.3623 O.2       5 UNK        -0.5248 
     39 N          25.7182    2.4799   -5.5396 N.am      6 UNK        -0.4434 
     40 CA         24.6167    3.3696   -5.9206 C.3       6 UNK         0.0363 
     41 CB         23.3080    2.8559   -5.3000 C.3       6 UNK        -0.1936 
     42 C          24.4736    3.5269   -7.4464 C.2       6 UNK         0.5081 
     43 O          24.1609    4.6206   -7.9162 O.2       6 UNK        -0.5248 
     44 N          24.7524    2.4488   -8.1929 N.am      7 UNK        -0.4718 
     45 CA         24.8345    2.4336   -9.6575 C.3       7 UNK         0.0273 
     46 CB         24.6923    0.9826  -10.1468 C.3       7 UNK        -0.1935 
     47 C          26.1239    3.0686  -10.2222 C.2       7 UNK         0.5018 
     48 O          26.2367    3.1852  -11.4430 O.2       7 UNK        -0.5186 
     49 N          27.0690    3.4494   -9.3476 N.am      8 UNK        -0.4240 
     50 CA         28.3779    4.0512   -9.6351 C.3       8 UNK         0.0235 
     51 CB         28.2229    5.4171  -10.3384 C.3       8 UNK        -0.2000 
     52 C          29.3637    3.1124  -10.3606 C.2       8 UNK         0.4941 
     53 O          30.3139    3.5955  -10.9792 O.2       8 UNK        -0.5273 
     54 N          29.1485    1.7953  -10.2520 N.am      9 UNK        -0.4262 
     55 CA         30.0574    0.7580  -10.7410 C.3       9 UNK         0.0264 
     56 CB         29.2400   -0.4530  -11.2211 C.3       9 UNK        -0.1955 
     57 C          31.0506    0.3407   -9.6458 C.2       9 UNK         0.5031 
     58 O          32.2321    0.1508   -9.9408 O.2       9 UNK        -0.5390 
     59 N          30.5534    0.2173   -8.4045 N.am      10 UNK        -0.4204 
     60 CA         31.2718   -0.2034   -7.1959 C.3       10 UNK         0.0237 
     61 CB         32.2205    0.9250   -6.7313 C.3       10 UNK        -0.1985 
     62 C          31.9460   -1.5785   -7.3928 C.2       10 UNK         0.4970 
     63 O          31.2691   -2.5123   -7.8268 O.2       10 UNK        -0.4914 
     64 N          33.2487   -1.6748   -7.1024 N.am      11 UNK        -0.4285 
     65 CA         34.0964   -2.8379   -7.4158 C.3       11 UNK         0.1007 
     66 C          34.7992   -2.7304   -8.8037 C.2       11 UNK         0.5703 
     67 N          34.4814   -1.7596   -9.6533 N.am      11 UNK        -0.7361 
     68 O          35.6464   -3.5582   -9.1315 O.2       11 UNK        -0.4986 
     69 C69        35.1001   -3.1434   -6.2688 C.3       12 UNK        -0.0947 
     70 S70        34.2498   -3.7403   -4.7686 S.3       12 UNK        -0.2240 
     71 C71        34.6749   -2.4882   -3.5175 C.3       12 UNK         0.0194 
     72 H72        25.6047   -6.5571   -4.0899 H         1 UNK         0.0906 
     73 H73        24.8905   -7.5676   -2.8327 H         1 UNK         0.0906 
     74 H74        24.0975   -6.0661   -3.3140 H         1 UNK         0.0906 
     75 H75        27.3806   -5.4230   -3.3306 H         1 UNK         0.3140 
     76 H76        27.8600   -5.0341   -0.5207 H         1 UNK         0.1085 
     77 H77        29.6802   -3.5490   -2.3738 H         1 UNK         0.0836 
     78 H78        29.4849   -5.1906   -2.8406 H         1 UNK         0.0836 
     79 H79        32.0056   -3.8832    0.7397 H         1 UNK         0.0731 
     80 H80        30.4363   -3.1317    0.6069 H         1 UNK         0.0731 
     81 H81        33.5023   -3.8788   -1.4766 H         1 UNK         0.1312 
     82 H82        33.0847   -0.3080   -3.8112 H         1 UNK         0.1406 
     83 H83        30.1964   -1.2334   -0.7868 H         1 UNK         0.1631 
     84 H84        31.2806    1.2214   -3.4148 H         1 UNK         0.0717 
     85 H85        30.4864    1.1727   -1.8487 H         1 UNK         0.0717 
     86 H86        27.4966    1.6414   -3.3549 H         1 UNK         0.0934 
     87 H87        29.0130    2.3870   -3.7765 H         1 UNK         0.0934 
     88 H88        28.8917    1.7032   -6.0770 H         1 UNK         0.0739 
     89 H89        26.9882   -0.2971   -5.2130 H         1 UNK         0.3093 
     90 H90        26.1609   -1.4701   -8.4288 H         1 UNK         0.0818 
     91 H91        28.4692   -2.3978   -8.2836 H         1 UNK         0.0819 
     92 H92        28.2669   -2.7043   -6.5666 H         1 UNK         0.0819 
     93 H93        27.2927   -3.5830   -7.7472 H         1 UNK         0.0819 
     94 H94        25.8696   -2.6174   -5.8215 H         1 UNK         0.3041 
     95 H95        22.9208   -0.8106   -4.9009 H         1 UNK         0.0784 
     96 H96        22.2372   -2.7637   -6.3156 H         1 UNK         0.0793 
     97 H97        23.4694   -3.7587   -5.5523 H         1 UNK         0.0793 
     98 H98        22.1219   -3.1298   -4.6038 H         1 UNK         0.0793 
     99 H99        24.2436   -2.6936   -3.3627 H         1 UNK         0.3024 
    100 H100       26.6509   -0.5356   -1.7863 H         1 UNK         0.1171 
    101 H101       25.3770   -1.3059    0.1900 H         1 UNK         0.0786 
    102 H102       24.3769   -0.2018   -0.7343 H         1 UNK         0.0786 
    103 H103       24.0866   -1.9347   -0.8308 H         1 UNK         0.0786 
    104 H104       26.1794   -3.1707   -2.8182 H         1 UNK         0.2977 
    105 H105       25.4671    1.6282   -5.0416 H         1 UNK         0.3127 
    106 H106       24.8302    4.3566   -5.5051 H         1 UNK         0.0770 
    107 H107       23.0482    1.8633   -5.6693 H         1 UNK         0.0814 
    108 H108       22.4765    3.5208   -5.5375 H         1 UNK         0.0814 
    109 H109       23.3794    2.7996   -4.2136 H         1 UNK         0.0814 
    110 H110       24.9119    1.5656   -7.7202 H         1 UNK         0.2983 
    111 H111       23.9948    3.0096  -10.0525 H         1 UNK         0.0947 
    112 H112       24.6461    0.9393  -11.2358 H         1 UNK         0.0806 
    113 H113       23.7815    0.5200   -9.7660 H         1 UNK         0.0806 
    114 H114       25.5372    0.3695   -9.8345 H         1 UNK         0.0806 
    115 H115       26.8793    3.3096   -8.3618 H         1 UNK         0.3000 
    116 H116       28.8295    4.2426   -8.6608 H         1 UNK         0.0850 
    117 H117       29.1785    5.9399  -10.3941 H         1 UNK         0.0810 
    118 H118       27.5330    6.0651   -9.7977 H         1 UNK         0.0810 
    119 H119       27.8541    5.3091  -11.3587 H         1 UNK         0.0810 
    120 H120       28.3769    1.4797   -9.6699 H         1 UNK         0.3040 
    121 H121       30.6301    1.1367  -11.5904 H         1 UNK         0.0766 
    122 H122       28.5687   -0.1773  -12.0346 H         1 UNK         0.0812 
    123 H123       28.6354   -0.8815  -10.4211 H         1 UNK         0.0812 
    124 H124       29.8951   -1.2417  -11.5934 H         1 UNK         0.0812 
    125 H125       29.5508    0.3556   -8.2949 H         1 UNK         0.3205 
    126 H126       30.5191   -0.3468   -6.4192 H         1 UNK         0.0754 
    127 H127       33.0060    1.1290   -7.4601 H         1 UNK         0.0769 
    128 H128       32.6982    0.6849   -5.7832 H         1 UNK         0.0769 
    129 H129       31.6702    1.8535   -6.5776 H         1 UNK         0.0769 
    130 H130       33.7344   -0.8508   -6.7826 H         1 UNK         0.2981 
    131 H131       33.4575   -3.7176   -7.5122 H         1 UNK         0.0541 
    132 H132       33.7359   -1.0988   -9.4616 H         1 UNK         0.3459 
    133 H133       34.9531   -1.7229  -10.5426 H         1 UNK         0.3459 
    134 H134       35.7945   -3.9338   -6.5590 H         1 UNK         0.0612 
    135 H135       35.7156   -2.2700   -6.0505 H         1 UNK         0.0612 
    136 H136       35.0962   -1.5988   -3.9874 H         1 UNK         0.0624 
    137 H137       35.4491   -2.8859   -2.8600 H         1 UNK         0.0624 
@<TRIPOS>BOND
     1    1    2 1    
     2    1   72 1    
     3    1   73 1    
     4    1   74 1    
     5    2    3 2    
     6    2    4 am   BACKBONE|DICT|INTERRES
     7    4    5 1    
     8    4   75 1    
     9    5    6 1    
    10    5   35 1    
    11    5   76 1    
    12    6    7 1    
    13    6   77 1    
    14    6   78 1    
    15    7    8 1    
    16    8    9 1    
    17    8   79 1    
    18    8   80 1    
    19    9   10 ar   
    20    9   14 ar   
    21   10   11 ar   
    22   10   81 1    
    23   11   12 ar   
    24   11   71 1    
    25   12   13 ar   
    26   12   82 1    
    27   13   14 ar   
    28   13   15 1    
    29   14   83 1    
    30   15   16 1    
    31   15   84 1    
    32   15   85 1    
    33   16   17 1    
    34   17   18 1    
    35   17   86 1    
    36   17   87 1    
    37   18   19 1    
    38   18   37 1    
    39   18   88 1    
    40   19   20 am   BACKBONE|DICT|INTERRES
    41   19   89 1    
    42   20   21 2    
    43   20   22 1    
    44   22   23 1    
    45   22   24 1    
    46   22   90 1    
    47   23   91 1    
    48   23   92 1    
    49   23   93 1    
    50   24   25 am   BACKBONE|DICT|INTERRES
    51   24   94 1    
    52   25   26 2    
    53   25   27 1    
    54   27   28 1    
    55   27   29 1    
    56   27   95 1    
    57   28   96 1    
    58   28   97 1    
    59   28   98 1    
    60   29   30 am   BACKBONE|DICT|INTERRES
    61   29   99 1    
    62   30   31 2    
    63   30   32 1    
    64   32   33 1    
    65   32   34 1    
    66   32  100 1    
    67   33  101 1    
    68   33  102 1    
    69   33  103 1    
    70   34   35 am   BACKBONE|DICT|INTERRES
    71   34  104 1    
    72   35   36 2    
    73   37   38 2    
    74   37   39 am   BACKBONE|DICT|INTERRES
    75   39   40 1    
    76   39  105 1    
    77   40   41 1    
    78   40   42 1    
    79   40  106 1    
    80   41  107 1    
    81   41  108 1    
    82   41  109 1    
    83   42   43 2    
    84   42   44 am   BACKBONE|DICT|INTERRES
    85   44   45 1    
    86   44  110 1    
    87   45   46 1    
    88   45   47 1    
    89   45  111 1    
    90   46  112 1    
    91   46  113 1    
    92   46  114 1    
    93   47   48 2    
    94   47   49 am   BACKBONE|DICT|INTERRES
    95   49   50 1    
    96   49  115 1    
    97   50   51 1    
    98   50   52 1    
    99   50  116 1    
   100   51  117 1    
   101   51  118 1    
   102   51  119 1    
   103   52   53 2    
   104   52   54 am   BACKBONE|DICT|INTERRES
   105   54   55 1    
   106   54  120 1    
   107   55   56 1    
   108   55   57 1    
   109   55  121 1    
   110   56  122 1    
   111   56  123 1    
   112   56  124 1    
   113   57   58 2    
   114   57   59 am   BACKBONE|DICT|INTERRES
   115   59   60 1    
   116   59  125 1    
   117   60   61 1    
   118   60   62 1    
   119   60  126 1    
   120   61  127 1    
   121   61  128 1    
   122   61  129 1    
   123   62   63 2    
   124   62   64 am   BACKBONE|DICT|INTERRES
   125   64   65 1    
   126   64  130 1    
   127   65   66 1    
   128   65   69 1    
   129   65  131 1    
   130   66   67 am   BACKBONE|DICT|INTERRES
   131   66   68 2    
   132   67  132 1    
   133   67  133 1    
   134   69   70 1    
   135   69  134 1    
   136   69  135 1    
   137   70   71 1    
   138   71  136 1    
   139   71  137 1    
@<TRIPOS>SUBSTRUCTURE
     1 UNK         1 GROUP             0       ****    0 ROOT    
