@<TRIPOS>MOLECULE
3R137
137   139    1
SMALL
USER_CHARGES


@<TRIPOS>ATOM
      1 CA         30.0765   -0.2947    0.7954 C.3       0 UNK        -0.2020 
      2 C          29.3129   -1.1234   -0.2261 C.2       0 UNK         0.4855 
      3 O          28.9167   -0.5978   -1.2657 O.2       0 UNK        -0.5197 
      4 N          29.1108   -2.4158    0.0580 N.am      1 UNK        -0.4892 
      5 CA         28.3894   -3.3579   -0.8022 C.3       1 UNK         0.0835 
      6 C6         28.7388   -4.8382   -0.4898 C.3       12 UNK        -0.0855 
      7 S7         30.5388   -5.1586   -0.4360 S.3       12 UNK        -0.2931 
      8 C8         30.8914   -5.7716   -2.1182 C.3       12 UNK         0.0378 
      9 C9         30.6191   -4.7399   -3.2084 C.ar      12 UNK        -0.0802 
     10 C10        31.1253   -3.4370   -3.1084 C.ar      12 UNK        -0.0944 
     11 C11        30.8488   -2.4894   -4.0981 C.ar      12 UNK        -0.0787 
     12 C12        30.0841   -2.8620   -5.2054 C.ar      12 UNK        -0.0862 
     13 C13        29.6091   -4.1674   -5.3417 C.ar      12 UNK        -0.0733 
     14 C14        29.8715   -5.1006   -4.3351 C.ar      12 UNK        -0.0832 
     15 C15        28.8406   -4.5687   -6.5930 C.3       12 UNK         0.0240 
     16 S16        27.0779   -4.8909   -6.2754 S.3       12 UNK        -0.2522 
     17 C17        26.4944   -3.3072   -5.5901 C.3       12 UNK        -0.0967 
     18 CA         26.1627   -2.2470   -6.6775 C.3       5 UNK         0.0660 
     19 N          24.8938   -1.5714   -6.4049 N.am      5 UNK        -0.4015 
     20 C          24.2104   -0.8244   -7.2817 C.2       4 UNK         0.4946 
     21 O          24.5509   -0.6553   -8.4522 O.2       4 UNK        -0.5353 
     22 CA         22.9439   -0.1285   -6.7523 C.3       4 UNK         0.0277 
     23 CB         21.7149   -1.0325   -6.9387 C.3       4 UNK        -0.1981 
     24 N          23.0550    0.2642   -5.3430 N.am      4 UNK        -0.4209 
     25 C          23.8661    1.2347   -4.8986 C.2       3 UNK         0.4942 
     26 O          24.5750    1.9216   -5.6327 O.2       3 UNK        -0.5208 
     27 CA         23.9348    1.4417   -3.3754 C.3       3 UNK         0.0250 
     28 CB         22.7474    2.2887   -2.8898 C.3       3 UNK        -0.1990 
     29 N          24.0114    0.2000   -2.5921 N.am      3 UNK        -0.4232 
     30 C          24.9538   -0.7410   -2.7406 C.2       2 UNK         0.4993 
     31 O          25.7984   -0.7304   -3.6396 O.2       2 UNK        -0.5286 
     32 CA         24.9521   -1.9043   -1.7450 C.3       2 UNK         0.0209 
     33 CB         23.9599   -3.0035   -2.1648 C.3       2 UNK        -0.1931 
     34 N          26.3124   -2.4317   -1.7069 N.am      2 UNK        -0.4546 
     35 C          26.8761   -3.0872   -0.6898 C.2       1 UNK         0.5154 
     36 O          26.2660   -3.4315    0.3253 O.2       1 UNK        -0.5181 
     37 C          27.2930   -1.2125   -6.8323 C.2       5 UNK         0.5014 
     38 O          28.0312   -1.2528   -7.8158 O.2       5 UNK        -0.5248 
     39 N          27.3801   -0.2818   -5.8722 N.am      6 UNK        -0.4434 
     40 CA         28.3462    0.8172   -5.8322 C.3       6 UNK         0.0363 
     41 CB         28.2486    1.5163   -4.4672 C.3       6 UNK        -0.1936 
     42 C          28.1785    1.8370   -6.9715 C.2       6 UNK         0.5081 
     43 O          29.1509    2.5017   -7.3236 O.2       6 UNK        -0.5248 
     44 N          26.9635    1.9520   -7.5240 N.am      7 UNK        -0.4718 
     45 CA         26.6766    2.7426   -8.7214 C.3       7 UNK         0.0273 
     46 CB         25.1708    3.0451   -8.7834 C.3       7 UNK        -0.1935 
     47 C          27.1389    2.0454  -10.0136 C.2       7 UNK         0.5018 
     48 O          27.5162    2.7345  -10.9623 O.2       7 UNK        -0.5186 
     49 N          27.0793    0.7065  -10.0416 N.am      8 UNK        -0.4240 
     50 CA         27.4682   -0.1172  -11.1867 C.3       8 UNK         0.0235 
     51 CB         26.7192   -1.4597  -11.1315 C.3       8 UNK        -0.2000 
     52 C          28.9870   -0.3392  -11.2519 C.2       8 UNK         0.4941 
     53 O          29.5779   -0.1709  -12.3200 O.2       8 UNK        -0.5273 
     54 N          29.5862   -0.7299  -10.1205 N.am      9 UNK        -0.4262 
     55 CA         31.0226   -0.9682   -9.9743 C.3       9 UNK         0.0264 
     56 CB         31.2432   -1.8831   -8.7601 C.3       9 UNK        -0.1955 
     57 C          31.8014    0.3449   -9.7976 C.2       9 UNK         0.5031 
     58 O          31.2285    1.3617   -9.4041 O.2       9 UNK        -0.5390 
     59 N          33.1189    0.2923  -10.0272 N.am      10 UNK        -0.4204 
     60 CA         34.0500    1.4134   -9.8489 C.3       10 UNK         0.0237 
     61 CB         35.2550    1.2117  -10.7883 C.3       10 UNK        -0.1985 
     62 C          34.4710    1.6096   -8.3748 C.2       10 UNK         0.4970 
     63 O          35.6609    1.7675   -8.0935 O.2       10 UNK        -0.4914 
     64 N          33.4982    1.5783   -7.4572 N.am      11 UNK        -0.4285 
     65 CA         33.6903    1.7994   -6.0164 C.3       11 UNK         0.1007 
     66 C          33.9029    3.2998   -5.6763 C.2       11 UNK         0.5703 
     67 N          34.5691    3.5923   -4.5674 N.am      11 UNK        -0.7361 
     68 O          33.4497    4.1982   -6.3839 O.2       11 UNK        -0.4986 
     69 C69        32.5279    1.1939   -5.1871 C.3       12 UNK        -0.0947 
     70 S70        32.4402   -0.6163   -5.3690 S.3       12 UNK        -0.2240 
     71 C71        31.3554   -1.0591   -3.9758 C.3       12 UNK         0.0194 
     72 H72        29.4565    0.5288    1.1486 H         1 UNK         0.0906 
     73 H73        30.3788   -0.8874    1.6587 H         1 UNK         0.0906 
     74 H74        30.9737    0.1247    0.3409 H         1 UNK         0.0906 
     75 H75        29.4522   -2.7995    0.9277 H         1 UNK         0.3140 
     76 H76        28.6862   -3.1655   -1.8349 H         1 UNK         0.1085 
     77 H77        28.2761   -5.5004   -1.2241 H         1 UNK         0.0836 
     78 H78        28.3311   -5.1322    0.4794 H         1 UNK         0.0836 
     79 H79        31.9412   -6.0626   -2.1708 H         1 UNK         0.0731 
     80 H80        30.3118   -6.6807   -2.2868 H         1 UNK         0.0731 
     81 H81        31.7132   -3.1560   -2.2453 H         1 UNK         0.1312 
     82 H82        29.8765   -2.1314   -5.9723 H         1 UNK         0.1406 
     83 H83        29.4943   -6.1095   -4.4362 H         1 UNK         0.1631 
     84 H84        29.2899   -5.4700   -7.0120 H         1 UNK         0.0717 
     85 H85        28.9275   -3.8042   -7.3658 H         1 UNK         0.0717 
     86 H86        25.5951   -3.5589   -5.0280 H         1 UNK         0.0934 
     87 H87        27.1922   -2.9395   -4.8355 H         1 UNK         0.0934 
     88 H88        26.0479   -2.7487   -7.6412 H         1 UNK         0.0739 
     89 H89        24.5795   -1.5857   -5.4459 H         1 UNK         0.3093 
     90 H90        22.7948    0.7765   -7.3456 H         1 UNK         0.0818 
     91 H91        20.7982   -0.5219   -6.6428 H         1 UNK         0.0819 
     92 H92        21.5993   -1.3207   -7.9846 H         1 UNK         0.0819 
     93 H93        21.7927   -1.9505   -6.3548 H         1 UNK         0.0819 
     94 H94        22.4980   -0.2460   -4.6727 H         1 UNK         0.3041 
     95 H95        24.8507    2.0012   -3.1729 H         1 UNK         0.0784 
     96 H96        22.6798    3.2231   -3.4493 H         1 UNK         0.0793 
     97 H97        21.7981    1.7659   -3.0126 H         1 UNK         0.0793 
     98 H98        22.8520    2.5526   -1.8371 H         1 UNK         0.0793 
     99 H99        23.3421    0.1023   -1.8417 H         1 UNK         0.3024 
    100 H100       24.6876   -1.5198   -0.7571 H         1 UNK         0.1171 
    101 H101       22.9407   -2.6174   -2.2079 H         1 UNK         0.0786 
    102 H102       23.9603   -3.8292   -1.4530 H         1 UNK         0.0786 
    103 H103       24.1968   -3.4122   -3.1466 H         1 UNK         0.0786 
    104 H104       26.8941   -2.0868   -2.4623 H         1 UNK         0.2977 
    105 H105       26.7425   -0.3484   -5.0777 H         1 UNK         0.3127 
    106 H106       29.3426    0.3833   -5.9332 H         1 UNK         0.0770 
    107 H107       27.2731    1.9838   -4.3271 H         1 UNK         0.0814 
    108 H108       29.0045    2.2969   -4.3729 H         1 UNK         0.0814 
    109 H109       28.4001    0.8147   -3.6466 H         1 UNK         0.0814 
    110 H110       26.1883    1.4580   -7.0988 H         1 UNK         0.2983 
    111 H111       27.2113    3.6924   -8.6484 H         1 UNK         0.0947 
    112 H112       24.9302    3.6534   -9.6562 H         1 UNK         0.0806 
    113 H113       24.8412    3.5967   -7.9027 H         1 UNK         0.0806 
    114 H114       24.5776    2.1322   -8.8474 H         1 UNK         0.0806 
    115 H115       26.7639    0.2168   -9.2142 H         1 UNK         0.3000 
    116 H116       27.1666    0.3945  -12.1035 H         1 UNK         0.0850 
    117 H117       26.9781   -2.0866  -11.9857 H         1 UNK         0.0810 
    118 H118       25.6395   -1.3101  -11.1531 H         1 UNK         0.0810 
    119 H119       26.9570   -2.0228  -10.2283 H         1 UNK         0.0810 
    120 H120       29.0215   -0.8311   -9.2782 H         1 UNK         0.3040 
    121 H121       31.3894   -1.4750  -10.8695 H         1 UNK         0.0766 
    122 H122       32.2978   -2.1278   -8.6279 H         1 UNK         0.0812 
    123 H123       30.7024   -2.8234   -8.8657 H         1 UNK         0.0812 
    124 H124       30.9041   -1.4011   -7.8440 H         1 UNK         0.0812 
    125 H125       33.5284   -0.5898  -10.3011 H         1 UNK         0.3205 
    126 H126       33.5499    2.3350  -10.1546 H         1 UNK         0.0754 
    127 H127       35.9378    2.0611  -10.7392 H         1 UNK         0.0769 
    128 H128       34.9371    1.1177  -11.8269 H         1 UNK         0.0769 
    129 H129       35.8248    0.3186  -10.5286 H         1 UNK         0.0769 
    130 H130       32.5407    1.5029   -7.7811 H         1 UNK         0.2981 
    131 H131       34.6060    1.2791   -5.7272 H         1 UNK         0.0541 
    132 H132       34.9402    2.8664   -3.9742 H         1 UNK         0.3459 
    133 H133       34.7093    4.5599   -4.3217 H         1 UNK         0.3459 
    134 H134       31.5714    1.6267   -5.4867 H         1 UNK         0.0612 
    135 H135       32.6539    1.4190   -4.1264 H         1 UNK         0.0612 
    136 H136       31.8988   -0.9149   -3.0408 H         1 UNK         0.0624 
    137 H137       30.5005   -0.3843   -3.9446 H         1 UNK         0.0624 
@<TRIPOS>BOND
     1    1    2 1    
     2    1   72 1    
     3    1   73 1    
     4    1   74 1    
     5    2    3 2    
     6    2    4 am   BACKBONE|DICT|INTERRES
     7    4    5 1    
     8    4   75 1    
     9    5    6 1    
    10    5   35 1    
    11    5   76 1    
    12    6    7 1    
    13    6   77 1    
    14    6   78 1    
    15    7    8 1    
    16    8    9 1    
    17    8   79 1    
    18    8   80 1    
    19    9   10 ar   
    20    9   14 ar   
    21   10   11 ar   
    22   10   81 1    
    23   11   12 ar   
    24   11   71 1    
    25   12   13 ar   
    26   12   82 1    
    27   13   14 ar   
    28   13   15 1    
    29   14   83 1    
    30   15   16 1    
    31   15   84 1    
    32   15   85 1    
    33   16   17 1    
    34   17   18 1    
    35   17   86 1    
    36   17   87 1    
    37   18   19 1    
    38   18   37 1    
    39   18   88 1    
    40   19   20 am   BACKBONE|DICT|INTERRES
    41   19   89 1    
    42   20   21 2    
    43   20   22 1    
    44   22   23 1    
    45   22   24 1    
    46   22   90 1    
    47   23   91 1    
    48   23   92 1    
    49   23   93 1    
    50   24   25 am   BACKBONE|DICT|INTERRES
    51   24   94 1    
    52   25   26 2    
    53   25   27 1    
    54   27   28 1    
    55   27   29 1    
    56   27   95 1    
    57   28   96 1    
    58   28   97 1    
    59   28   98 1    
    60   29   30 am   BACKBONE|DICT|INTERRES
    61   29   99 1    
    62   30   31 2    
    63   30   32 1    
    64   32   33 1    
    65   32   34 1    
    66   32  100 1    
    67   33  101 1    
    68   33  102 1    
    69   33  103 1    
    70   34   35 am   BACKBONE|DICT|INTERRES
    71   34  104 1    
    72   35   36 2    
    73   37   38 2    
    74   37   39 am   BACKBONE|DICT|INTERRES
    75   39   40 1    
    76   39  105 1    
    77   40   41 1    
    78   40   42 1    
    79   40  106 1    
    80   41  107 1    
    81   41  108 1    
    82   41  109 1    
    83   42   43 2    
    84   42   44 am   BACKBONE|DICT|INTERRES
    85   44   45 1    
    86   44  110 1    
    87   45   46 1    
    88   45   47 1    
    89   45  111 1    
    90   46  112 1    
    91   46  113 1    
    92   46  114 1    
    93   47   48 2    
    94   47   49 am   BACKBONE|DICT|INTERRES
    95   49   50 1    
    96   49  115 1    
    97   50   51 1    
    98   50   52 1    
    99   50  116 1    
   100   51  117 1    
   101   51  118 1    
   102   51  119 1    
   103   52   53 2    
   104   52   54 am   BACKBONE|DICT|INTERRES
   105   54   55 1    
   106   54  120 1    
   107   55   56 1    
   108   55   57 1    
   109   55  121 1    
   110   56  122 1    
   111   56  123 1    
   112   56  124 1    
   113   57   58 2    
   114   57   59 am   BACKBONE|DICT|INTERRES
   115   59   60 1    
   116   59  125 1    
   117   60   61 1    
   118   60   62 1    
   119   60  126 1    
   120   61  127 1    
   121   61  128 1    
   122   61  129 1    
   123   62   63 2    
   124   62   64 am   BACKBONE|DICT|INTERRES
   125   64   65 1    
   126   64  130 1    
   127   65   66 1    
   128   65   69 1    
   129   65  131 1    
   130   66   67 am   BACKBONE|DICT|INTERRES
   131   66   68 2    
   132   67  132 1    
   133   67  133 1    
   134   69   70 1    
   135   69  134 1    
   136   69  135 1    
   137   70   71 1    
   138   71  136 1    
   139   71  137 1    
@<TRIPOS>SUBSTRUCTURE
     1 UNK         1 GROUP             0       ****    0 ROOT    
