@<TRIPOS>MOLECULE
3R137
137   139    1
SMALL
USER_CHARGES


@<TRIPOS>ATOM
      1 CA         29.8631   -5.5197   -0.9348 C.3       0 UNK        -0.2020 
      2 C          28.6097   -4.9377   -0.2982 C.2       0 UNK         0.4855 
      3 O          27.8337   -5.6730    0.3117 O.2       0 UNK        -0.5197 
      4 N          28.4119   -3.6197   -0.4307 N.am      1 UNK        -0.4892 
      5 CA         27.3079   -2.8582    0.1721 C.3       1 UNK         0.0835 
      6 C6         27.5251   -1.3210    0.0907 C.3       12 UNK        -0.0855 
      7 S7         29.2141   -0.7635    0.5199 S.3       12 UNK        -0.2931 
      8 C8         29.7460    0.0699   -1.0160 C.3       12 UNK         0.0378 
      9 C9         30.3493   -0.8993   -2.0268 C.ar      12 UNK        -0.0802 
     10 C10        31.7294   -0.9121   -2.2506 C.ar      12 UNK        -0.0944 
     11 C11        32.2922   -1.7866   -3.1867 C.ar      12 UNK        -0.0787 
     12 C12        31.4677   -2.6864   -3.8695 C.ar      12 UNK        -0.0862 
     13 C13        30.0896   -2.7007   -3.6405 C.ar      12 UNK        -0.0733 
     14 C14        29.5358   -1.7795   -2.7455 C.ar      12 UNK        -0.0832 
     15 C15        29.2166   -3.7640   -4.2954 C.3       12 UNK         0.0240 
     16 S16        27.7156   -3.0810   -5.0570 S.3       12 UNK        -0.2522 
     17 C17        28.2181   -2.9452   -6.8099 C.3       12 UNK        -0.0967 
     18 CA         27.5023   -1.7981   -7.5671 C.3       5 UNK         0.0660 
     19 N          26.0712   -1.7618   -7.2600 N.am      5 UNK        -0.4015 
     20 C          25.1488   -0.9984   -7.8545 C.2       4 UNK         0.4946 
     21 O          25.3771   -0.2629   -8.8131 O.2       4 UNK        -0.5353 
     22 CA         23.7454   -1.0245   -7.2255 C.3       4 UNK         0.0277 
     23 CB         22.9379   -2.2232   -7.7473 C.3       4 UNK        -0.1981 
     24 N          23.7720   -1.0498   -5.7572 N.am      4 UNK        -0.4209 
     25 C          24.3107   -0.0988   -4.9835 C.2       3 UNK         0.4942 
     26 O          24.8682    0.9020   -5.4324 O.2       3 UNK        -0.5208 
     27 CA         24.2534   -0.2904   -3.4590 C.3       3 UNK         0.0250 
     28 CB         22.8794    0.1270   -2.9006 C.3       3 UNK        -0.1990 
     29 N          24.6531   -1.6215   -2.9772 N.am      3 UNK        -0.4232 
     30 C          24.0397   -2.8054   -3.1284 C.2       2 UNK         0.4993 
     31 O          23.0293   -2.9650   -3.8148 O.2       2 UNK        -0.5286 
     32 CA         24.6573   -4.0217   -2.4057 C.3       2 UNK         0.0209 
     33 CB         24.9446   -5.1704   -3.3886 C.3       2 UNK        -0.1931 
     34 N          25.8849   -3.7044   -1.6617 N.am      2 UNK        -0.4546 
     35 C          25.9207   -3.2106   -0.4135 C.2       1 UNK         0.5154 
     36 O          24.9110   -2.9910    0.2562 O.2       1 UNK        -0.5181 
     37 C          28.1984   -0.4444   -7.3274 C.2       5 UNK         0.5014 
     38 O          29.0169   -0.0343   -8.1513 O.2       5 UNK        -0.5248 
     39 N          27.8529    0.2335   -6.2245 N.am      6 UNK        -0.4434 
     40 CA         28.3688    1.5586   -5.8821 C.3       6 UNK         0.0363 
     41 CB         28.0710    1.8734   -4.4086 C.3       6 UNK        -0.1936 
     42 C          27.8105    2.6451   -6.8135 C.2       6 UNK         0.5081 
     43 O          28.5723    3.5023   -7.2583 O.2       6 UNK        -0.5248 
     44 N          26.5125    2.5593   -7.1401 N.am      7 UNK        -0.4718 
     45 CA         25.8341    3.4261   -8.1101 C.3       7 UNK         0.0273 
     46 CB         24.3229    3.1488   -8.0800 C.3       7 UNK        -0.1935 
     47 C          26.3913    3.2792   -9.5381 C.2       7 UNK         0.5018 
     48 O          26.5510    4.2837  -10.2320 O.2       7 UNK        -0.5186 
     49 N          26.7170    2.0403   -9.9331 N.am      8 UNK        -0.4240 
     50 CA         27.3972    1.7064  -11.1885 C.3       8 UNK         0.0235 
     51 CB         27.1997    0.2082  -11.4762 C.3       8 UNK        -0.2000 
     52 C          28.8998    2.0534  -11.1968 C.2       8 UNK         0.4941 
     53 O          29.5150    1.9848  -12.2616 O.2       8 UNK        -0.5273 
     54 N          29.4651    2.3916  -10.0273 N.am      9 UNK        -0.4262 
     55 CA         30.8793    2.6769   -9.7600 C.3       9 UNK         0.0264 
     56 CB         31.3414    3.9490  -10.5020 C.3       9 UNK        -0.1955 
     57 C          31.8033    1.4670  -10.0040 C.2       9 UNK         0.5031 
     58 O          32.9682    1.6474  -10.3656 O.2       9 UNK        -0.5390 
     59 N          31.2920    0.2510   -9.7585 N.am      10 UNK        -0.4204 
     60 CA         32.0238   -1.0142   -9.8984 C.3       10 UNK         0.0237 
     61 CB         31.0344   -2.1870   -9.8102 C.3       10 UNK        -0.1985 
     62 C          33.1559   -1.1778   -8.8674 C.2       10 UNK         0.4970 
     63 O          34.1017   -1.9244   -9.1207 O.2       10 UNK        -0.4914 
     64 N          33.0489   -0.4582   -7.7435 N.am      11 UNK        -0.4285 
     65 CA         34.0997   -0.2917   -6.7319 C.3       11 UNK         0.1007 
     66 C          35.3215    0.5535   -7.2130 C.2       11 UNK         0.5703 
     67 N          35.2421    1.2810   -8.3233 N.am      11 UNK        -0.7361 
     68 O          36.3731    0.5350   -6.5786 O.2       11 UNK        -0.4986 
     69 C69        33.4803    0.2567   -5.4179 C.3       12 UNK        -0.0947 
     70 S70        34.4407   -0.1405   -3.9174 S.3       12 UNK        -0.2240 
     71 C71        33.7934   -1.7812   -3.4509 C.3       12 UNK         0.0194 
     72 H72        30.4912   -4.7487   -1.3813 H         1 UNK         0.0906 
     73 H73        29.5935   -6.2338   -1.7124 H         1 UNK         0.0906 
     74 H74        30.4555   -6.0423   -0.1843 H         1 UNK         0.0906 
     75 H75        29.1221   -3.0586   -0.8822 H         1 UNK         0.3140 
     76 H76        27.2783   -3.1330    1.2291 H         1 UNK         0.1085 
     77 H77        26.8379   -0.8227    0.7776 H         1 UNK         0.0836 
     78 H78        27.2621   -0.9376   -0.8954 H         1 UNK         0.0836 
     79 H79        28.9097    0.6098   -1.4606 H         1 UNK         0.0731 
     80 H80        30.4793    0.8329   -0.7499 H         1 UNK         0.0731 
     81 H81        32.3699   -0.2309   -1.7071 H         1 UNK         0.1312 
     82 H82        31.9028   -3.3897   -4.5664 H         1 UNK         0.1406 
     83 H83        28.4678   -1.7706   -2.5931 H         1 UNK         0.1631 
     84 H84        28.9113   -4.4770   -3.5299 H         1 UNK         0.0717 
     85 H85        29.7772   -4.3398   -5.0335 H         1 UNK         0.0717 
     86 H86        29.3033   -2.8458   -6.8786 H         1 UNK         0.0934 
     87 H87        27.9816   -3.8959   -7.2904 H         1 UNK         0.0934 
     88 H88        27.5913   -2.0020   -8.6363 H         1 UNK         0.0739 
     89 H89        25.7877   -2.3260   -6.4720 H         1 UNK         0.3093 
     90 H90        23.2339   -0.1090   -7.5294 H         1 UNK         0.0818 
     91 H91        21.9104   -2.1961   -7.3840 H         1 UNK         0.0819 
     92 H92        22.8951   -2.2203   -8.8375 H         1 UNK         0.0819 
     93 H93        23.3765   -3.1732   -7.4393 H         1 UNK         0.0819 
     94 H94        23.3391   -1.8411   -5.2848 H         1 UNK         0.3041 
     95 H95        24.9890    0.3982   -3.0398 H         1 UNK         0.0784 
     96 H96        22.6402    1.1529   -3.1842 H         1 UNK         0.0793 
     97 H97        22.0745   -0.5069   -3.2739 H         1 UNK         0.0793 
     98 H98        22.8642    0.0804   -1.8116 H         1 UNK         0.0793 
     99 H99        25.4955   -1.6339   -2.4236 H         1 UNK         0.3024 
    100 H100       23.9020   -4.3740   -1.6991 H         1 UNK         0.1171 
    101 H101       24.0330   -5.4877   -3.8970 H         1 UNK         0.0786 
    102 H102       25.3425   -6.0436   -2.8713 H         1 UNK         0.0786 
    103 H103       25.6590   -4.8828   -4.1583 H         1 UNK         0.0786 
    104 H104       26.7610   -3.8764   -2.1332 H         1 UNK         0.2977 
    105 H105       27.1461   -0.1546   -5.6180 H         1 UNK         0.3127 
    106 H106       29.4540    1.5396   -6.0068 H         1 UNK         0.0770 
    107 H107       27.0009    1.9214   -4.2070 H         1 UNK         0.0814 
    108 H108       28.4988    2.8355   -4.1239 H         1 UNK         0.0814 
    109 H109       28.5050    1.1192   -3.7537 H         1 UNK         0.0814 
    110 H110       25.9443    1.8509   -6.6806 H         1 UNK         0.2983 
    111 H111       25.9979    4.4600   -7.7988 H         1 UNK         0.0947 
    112 H112       23.7903    3.8163   -8.7586 H         1 UNK         0.0806 
    113 H113       23.9113    3.3027   -7.0822 H         1 UNK         0.0806 
    114 H114       24.0936    2.1265   -8.3810 H         1 UNK         0.0806 
    115 H115       26.4602    1.2584   -9.3351 H         1 UNK         0.3000 
    116 H116       26.9286    2.2753  -11.9943 H         1 UNK         0.0850 
    117 H117       27.6563   -0.0744  -12.4257 H         1 UNK         0.0810 
    118 H118       26.1419   -0.0480  -11.5373 H         1 UNK         0.0810 
    119 H119       27.6497   -0.4117  -10.6998 H         1 UNK         0.0810 
    120 H120       28.8665    2.4163   -9.2109 H         1 UNK         0.3040 
    121 H121       30.9414    2.8845   -8.6909 H         1 UNK         0.0766 
    122 H122       31.3773    3.7989  -11.5813 H         1 UNK         0.0812 
    123 H123       30.6759    4.7884  -10.3006 H         1 UNK         0.0812 
    124 H124       32.3413    4.2461  -10.1833 H         1 UNK         0.0812 
    125 H125       30.3505    0.1917   -9.3699 H         1 UNK         0.3205 
    126 H126       32.4810   -1.0256  -10.8900 H         1 UNK         0.0754 
    127 H127       31.5399   -3.1380   -9.9833 H         1 UNK         0.0769 
    128 H128       30.2445   -2.0982  -10.5565 H         1 UNK         0.0769 
    129 H129       30.5644   -2.2420   -8.8288 H         1 UNK         0.0769 
    130 H130       32.2282    0.1161   -7.6284 H         1 UNK         0.2981 
    131 H131       34.4855   -1.2920   -6.5269 H         1 UNK         0.0541 
    132 H132       34.4037    1.2970   -8.8914 H         1 UNK         0.3459 
    133 H133       36.0483    1.8099   -8.6151 H         1 UNK         0.3459 
    134 H134       32.4706   -0.1331   -5.2831 H         1 UNK         0.0612 
    135 H135       33.3608    1.3403   -5.4730 H         1 UNK         0.0612 
    136 H136       34.0527   -2.4912   -4.2377 H         1 UNK         0.0624 
    137 H137       34.3094   -2.1174   -2.5508 H         1 UNK         0.0624 
@<TRIPOS>BOND
     1    1    2 1    
     2    1   72 1    
     3    1   73 1    
     4    1   74 1    
     5    2    3 2    
     6    2    4 am   BACKBONE|DICT|INTERRES
     7    4    5 1    
     8    4   75 1    
     9    5    6 1    
    10    5   35 1    
    11    5   76 1    
    12    6    7 1    
    13    6   77 1    
    14    6   78 1    
    15    7    8 1    
    16    8    9 1    
    17    8   79 1    
    18    8   80 1    
    19    9   10 ar   
    20    9   14 ar   
    21   10   11 ar   
    22   10   81 1    
    23   11   12 ar   
    24   11   71 1    
    25   12   13 ar   
    26   12   82 1    
    27   13   14 ar   
    28   13   15 1    
    29   14   83 1    
    30   15   16 1    
    31   15   84 1    
    32   15   85 1    
    33   16   17 1    
    34   17   18 1    
    35   17   86 1    
    36   17   87 1    
    37   18   19 1    
    38   18   37 1    
    39   18   88 1    
    40   19   20 am   BACKBONE|DICT|INTERRES
    41   19   89 1    
    42   20   21 2    
    43   20   22 1    
    44   22   23 1    
    45   22   24 1    
    46   22   90 1    
    47   23   91 1    
    48   23   92 1    
    49   23   93 1    
    50   24   25 am   BACKBONE|DICT|INTERRES
    51   24   94 1    
    52   25   26 2    
    53   25   27 1    
    54   27   28 1    
    55   27   29 1    
    56   27   95 1    
    57   28   96 1    
    58   28   97 1    
    59   28   98 1    
    60   29   30 am   BACKBONE|DICT|INTERRES
    61   29   99 1    
    62   30   31 2    
    63   30   32 1    
    64   32   33 1    
    65   32   34 1    
    66   32  100 1    
    67   33  101 1    
    68   33  102 1    
    69   33  103 1    
    70   34   35 am   BACKBONE|DICT|INTERRES
    71   34  104 1    
    72   35   36 2    
    73   37   38 2    
    74   37   39 am   BACKBONE|DICT|INTERRES
    75   39   40 1    
    76   39  105 1    
    77   40   41 1    
    78   40   42 1    
    79   40  106 1    
    80   41  107 1    
    81   41  108 1    
    82   41  109 1    
    83   42   43 2    
    84   42   44 am   BACKBONE|DICT|INTERRES
    85   44   45 1    
    86   44  110 1    
    87   45   46 1    
    88   45   47 1    
    89   45  111 1    
    90   46  112 1    
    91   46  113 1    
    92   46  114 1    
    93   47   48 2    
    94   47   49 am   BACKBONE|DICT|INTERRES
    95   49   50 1    
    96   49  115 1    
    97   50   51 1    
    98   50   52 1    
    99   50  116 1    
   100   51  117 1    
   101   51  118 1    
   102   51  119 1    
   103   52   53 2    
   104   52   54 am   BACKBONE|DICT|INTERRES
   105   54   55 1    
   106   54  120 1    
   107   55   56 1    
   108   55   57 1    
   109   55  121 1    
   110   56  122 1    
   111   56  123 1    
   112   56  124 1    
   113   57   58 2    
   114   57   59 am   BACKBONE|DICT|INTERRES
   115   59   60 1    
   116   59  125 1    
   117   60   61 1    
   118   60   62 1    
   119   60  126 1    
   120   61  127 1    
   121   61  128 1    
   122   61  129 1    
   123   62   63 2    
   124   62   64 am   BACKBONE|DICT|INTERRES
   125   64   65 1    
   126   64  130 1    
   127   65   66 1    
   128   65   69 1    
   129   65  131 1    
   130   66   67 am   BACKBONE|DICT|INTERRES
   131   66   68 2    
   132   67  132 1    
   133   67  133 1    
   134   69   70 1    
   135   69  134 1    
   136   69  135 1    
   137   70   71 1    
   138   71  136 1    
   139   71  137 1    
@<TRIPOS>SUBSTRUCTURE
     1 UNK         1 GROUP             0       ****    0 ROOT    
