@<TRIPOS>MOLECULE
3R137
137   139    1
SMALL
USER_CHARGES


@<TRIPOS>ATOM
      1 CA         28.0476   -5.0038    1.3483 C.3       0 UNK        -0.2020 
      2 C          27.3179   -3.6861    1.1348 C.2       0 UNK         0.4855 
      3 O          26.4204   -3.3510    1.9081 O.2       0 UNK        -0.5197 
      4 N          27.6992   -2.9358    0.0927 N.am      1 UNK        -0.4892 
      5 CA         27.1010   -1.6457   -0.2736 C.3       1 UNK         0.0835 
      6 C6         27.9881   -0.8667   -1.2794 C.3       12 UNK        -0.0855 
      7 S7         29.4814   -0.1401   -0.5179 S.3       12 UNK        -0.2931 
      8 C8         30.7867   -1.3857   -0.7882 C.3       12 UNK         0.0378 
      9 C9         31.0224   -1.6988   -2.2600 C.ar      12 UNK        -0.0802 
     10 C10        31.6875   -0.7877   -3.0895 C.ar      12 UNK        -0.0944 
     11 C11        31.9049   -1.0884   -4.4393 C.ar      12 UNK        -0.0787 
     12 C12        31.4561   -2.3071   -4.9534 C.ar      12 UNK        -0.0862 
     13 C13        30.7776   -3.2152   -4.1392 C.ar      12 UNK        -0.0733 
     14 C14        30.5806   -2.9143   -2.7896 C.ar      12 UNK        -0.0832 
     15 C15        30.2076   -4.4987   -4.7247 C.3       12 UNK         0.0240 
     16 S16        28.9294   -4.1863   -5.9906 S.3       12 UNK        -0.2522 
     17 C17        27.8408   -2.9413   -5.2120 C.3       12 UNK        -0.0967 
     18 CA         27.4521   -1.8202   -6.2185 C.3       5 UNK         0.0660 
     19 N          26.0448   -1.9372   -6.5966 N.am      5 UNK        -0.4015 
     20 C          25.5156   -1.6034   -7.7779 C.2       4 UNK         0.4946 
     21 O          26.1709   -1.1769   -8.7288 O.2       4 UNK        -0.5353 
     22 CA         23.9921   -1.7797   -7.9264 C.3       4 UNK         0.0277 
     23 CB         23.6735   -3.1280   -8.5927 C.3       4 UNK        -0.1981 
     24 N          23.2638   -1.6854   -6.6546 N.am      4 UNK        -0.4209 
     25 C          23.0826   -0.5429   -5.9778 C.2       3 UNK         0.4942 
     26 O          23.4943    0.5510   -6.3651 O.2       3 UNK        -0.5208 
     27 CA         22.3439   -0.6341   -4.6277 C.3       3 UNK         0.0250 
     28 CB         20.8231   -0.6496   -4.8528 C.3       3 UNK        -0.1990 
     29 N          22.7185   -1.7521   -3.7446 N.am      3 UNK        -0.4232 
     30 C          23.9661   -2.1133   -3.4123 C.2       2 UNK         0.4993 
     31 O          24.9744   -1.6932   -3.9787 O.2       2 UNK        -0.5286 
     32 CA         24.1348   -3.1297   -2.2698 C.3       2 UNK         0.0209 
     33 CB         24.1365   -4.5618   -2.8278 C.3       2 UNK        -0.1931 
     34 N          25.3882   -2.9007   -1.5378 N.am      2 UNK        -0.4546 
     35 C          25.6646   -1.7975   -0.8232 C.2       1 UNK         0.5154 
     36 O          24.8376   -0.9137   -0.5919 O.2       1 UNK        -0.5181 
     37 C          27.7356   -0.4036   -5.6747 C.2       5 UNK         0.5014 
     38 O          28.7430    0.2020   -6.0437 O.2       5 UNK        -0.5248 
     39 N          26.8056    0.1245   -4.8626 N.am      6 UNK        -0.4434 
     40 CA         26.7953    1.4723   -4.2789 C.3       6 UNK         0.0363 
     41 CB         25.5519    1.6224   -3.3871 C.3       6 UNK        -0.1936 
     42 C          26.8304    2.6155   -5.3092 C.2       6 UNK         0.5081 
     43 O          27.2399    3.7241   -4.9651 O.2       6 UNK        -0.5248 
     44 N          26.4380    2.3234   -6.5571 N.am      7 UNK        -0.4718 
     45 CA         26.5853    3.1942   -7.7263 C.3       7 UNK         0.0273 
     46 CB         25.8178    2.5676   -8.9024 C.3       7 UNK        -0.1935 
     47 C          28.0517    3.4697   -8.1245 C.2       7 UNK         0.5018 
     48 O          28.2844    4.3509   -8.9513 O.2       7 UNK        -0.5186 
     49 N          29.0029    2.7075   -7.5600 N.am      8 UNK        -0.4240 
     50 CA         30.4630    2.7976   -7.6929 C.3       8 UNK         0.0235 
     51 CB         30.9914    4.2014   -7.3368 C.3       8 UNK        -0.2000 
     52 C          31.0253    2.3037   -9.0346 C.2       8 UNK         0.4941 
     53 O          32.2358    2.0994   -9.1240 O.2       8 UNK        -0.5273 
     54 N          30.1662    2.0453  -10.0308 N.am      9 UNK        -0.4262 
     55 CA         30.5227    1.4879  -11.3424 C.3       9 UNK         0.0264 
     56 CB         29.2671    1.4452  -12.2282 C.3       9 UNK        -0.1955 
     57 C          31.1818    0.0962  -11.2723 C.2       9 UNK         0.5031 
     58 O          31.9468   -0.2584  -12.1696 O.2       9 UNK        -0.5390 
     59 N          30.8939   -0.6497  -10.1973 N.am      10 UNK        -0.4204 
     60 CA         31.5296   -1.9208   -9.8532 C.3       10 UNK         0.0237 
     61 CB         30.6754   -2.6203   -8.7842 C.3       10 UNK        -0.1985 
     62 C          32.9904   -1.7760   -9.3787 C.2       10 UNK         0.4970 
     63 O          33.7437   -2.7434   -9.4954 O.2       10 UNK        -0.4914 
     64 N          33.3649   -0.5980   -8.8605 N.am      11 UNK        -0.4285 
     65 CA         34.7355   -0.2570   -8.4482 C.3       11 UNK         0.1007 
     66 C          35.4660    0.5819   -9.5295 C.2       11 UNK         0.5703 
     67 N          34.7979    1.5192  -10.1905 N.am      11 UNK        -0.7361 
     68 O          36.6511    0.3729   -9.7777 O.2       11 UNK        -0.4986 
     69 C69        34.7626    0.4723   -7.0788 C.3       12 UNK        -0.0947 
     70 S70        34.3064   -0.6342   -5.7049 S.3       12 UNK        -0.2240 
     71 C71        32.6031   -0.1024   -5.3619 C.3       12 UNK         0.0194 
     72 H72        27.3440   -5.8344    1.2976 H         1 UNK         0.0906 
     73 H73        28.8223   -5.1698    0.6000 H         1 UNK         0.0906 
     74 H74        28.5185   -5.0163    2.3309 H         1 UNK         0.0906 
     75 H75        28.4503   -3.2570   -0.4975 H         1 UNK         0.3140 
     76 H76        27.0158   -1.0478    0.6372 H         1 UNK         0.1085 
     77 H77        27.4363   -0.0212   -1.6911 H         1 UNK         0.0836 
     78 H78        28.2506   -1.4834   -2.1384 H         1 UNK         0.0836 
     79 H79        31.7153   -1.0138   -0.3526 H         1 UNK         0.0731 
     80 H80        30.5396   -2.2904   -0.2313 H         1 UNK         0.0731 
     81 H81        32.0286    0.1551   -2.6843 H         1 UNK         0.1312 
     82 H82        31.6194   -2.5422   -5.9949 H         1 UNK         0.1406 
     83 H83        30.0639   -3.6217   -2.1567 H         1 UNK         0.1631 
     84 H84        29.7755   -5.1248   -3.9426 H         1 UNK         0.0717 
     85 H85        31.0149   -5.0799   -5.1722 H         1 UNK         0.0717 
     86 H86        26.9612   -3.4654   -4.8343 H         1 UNK         0.0934 
     87 H87        28.3091   -2.5308   -4.3194 H         1 UNK         0.0934 
     88 H88        28.0563   -1.9190   -7.1230 H         1 UNK         0.0739 
     89 H89        25.4147   -2.1889   -5.8434 H         1 UNK         0.3093 
     90 H90        23.6357   -0.9828   -8.5831 H         1 UNK         0.0818 
     91 H91        22.6051   -3.2357   -8.7809 H         1 UNK         0.0819 
     92 H92        24.1801   -3.2162   -9.5550 H         1 UNK         0.0819 
     93 H93        23.9944   -3.9699   -7.9778 H         1 UNK         0.0819 
     94 H94        22.8923   -2.5411   -6.2672 H         1 UNK         0.3041 
     95 H95        22.5852    0.2788   -4.0802 H         1 UNK         0.0784 
     96 H96        20.5127    0.1794   -5.4909 H         1 UNK         0.0793 
     97 H97        20.4948   -1.5718   -5.3339 H         1 UNK         0.0793 
     98 H98        20.2804   -0.5495   -3.9126 H         1 UNK         0.0793 
     99 H99        21.9541   -2.1880   -3.2487 H         1 UNK         0.3024 
    100 H100       23.3048   -3.0147   -1.5691 H         1 UNK         0.1171 
    101 H101       23.2063   -4.7793   -3.3546 H         1 UNK         0.0786 
    102 H102       24.2334   -5.2982   -2.0298 H         1 UNK         0.0786 
    103 H103       24.9544   -4.7206   -3.5321 H         1 UNK         0.0786 
    104 H104       26.1253   -3.5751   -1.6760 H         1 UNK         0.2977 
    105 H105       26.0328   -0.4819   -4.5836 H         1 UNK         0.3127 
    106 H106       27.6881    1.5631   -3.6571 H         1 UNK         0.0770 
    107 H107       24.6352    1.6034   -3.9769 H         1 UNK         0.0814 
    108 H108       25.5713    2.5702   -2.8477 H         1 UNK         0.0814 
    109 H109       25.4829    0.8287   -2.6450 H         1 UNK         0.0814 
    110 H110       26.0659    1.3988   -6.7251 H         1 UNK         0.2983 
    111 H111       26.1301    4.1575   -7.4868 H         1 UNK         0.0947 
    112 H112       25.8529    3.2119   -9.7821 H         1 UNK         0.0806 
    113 H113       24.7666    2.4164   -8.6550 H         1 UNK         0.0806 
    114 H114       26.2360    1.6014   -9.1883 H         1 UNK         0.0806 
    115 H115       28.6934    1.9604   -6.9429 H         1 UNK         0.3000 
    116 H116       30.8541    2.1096   -6.9420 H         1 UNK         0.0850 
    117 H117       32.0813    4.2054   -7.2918 H         1 UNK         0.0810 
    118 H118       30.6259    4.5272   -6.3628 H         1 UNK         0.0810 
    119 H119       30.6983    4.9486   -8.0745 H         1 UNK         0.0810 
    120 H120       29.1950    2.2793   -9.8824 H         1 UNK         0.3040 
    121 H121       31.2460    2.1655  -11.8009 H         1 UNK         0.0766 
    122 H122       28.8409    2.4397  -12.3619 H         1 UNK         0.0812 
    123 H123       28.4946    0.8020  -11.8041 H         1 UNK         0.0812 
    124 H124       29.5030    1.0600  -13.2213 H         1 UNK         0.0812 
    125 H125       30.2298   -0.2799   -9.5332 H         1 UNK         0.3205 
    126 H126       31.5413   -2.5495  -10.7462 H         1 UNK         0.0754 
    127 H127       29.6912   -2.8822   -9.1736 H         1 UNK         0.0769 
    128 H128       30.5260   -1.9852   -7.9108 H         1 UNK         0.0769 
    129 H129       31.1429   -3.5458   -8.4445 H         1 UNK         0.0769 
    130 H130       32.7159    0.1793   -8.8723 H         1 UNK         0.2981 
    131 H131       35.3172   -1.1739   -8.3338 H         1 UNK         0.0541 
    132 H132       33.8414    1.7457   -9.9294 H         1 UNK         0.3459 
    133 H133       35.2698    2.0590  -10.8975 H         1 UNK         0.3459 
    134 H134       34.1116    1.3486   -7.0881 H         1 UNK         0.0612 
    135 H135       35.7664    0.8430   -6.8625 H         1 UNK         0.0612 
    136 H136       32.6146    0.8982   -4.9272 H         1 UNK         0.0624 
    137 H137       32.0463   -0.0312   -6.2975 H         1 UNK         0.0624 
@<TRIPOS>BOND
     1    1    2 1    
     2    1   72 1    
     3    1   73 1    
     4    1   74 1    
     5    2    3 2    
     6    2    4 am   BACKBONE|DICT|INTERRES
     7    4    5 1    
     8    4   75 1    
     9    5    6 1    
    10    5   35 1    
    11    5   76 1    
    12    6    7 1    
    13    6   77 1    
    14    6   78 1    
    15    7    8 1    
    16    8    9 1    
    17    8   79 1    
    18    8   80 1    
    19    9   10 ar   
    20    9   14 ar   
    21   10   11 ar   
    22   10   81 1    
    23   11   12 ar   
    24   11   71 1    
    25   12   13 ar   
    26   12   82 1    
    27   13   14 ar   
    28   13   15 1    
    29   14   83 1    
    30   15   16 1    
    31   15   84 1    
    32   15   85 1    
    33   16   17 1    
    34   17   18 1    
    35   17   86 1    
    36   17   87 1    
    37   18   19 1    
    38   18   37 1    
    39   18   88 1    
    40   19   20 am   BACKBONE|DICT|INTERRES
    41   19   89 1    
    42   20   21 2    
    43   20   22 1    
    44   22   23 1    
    45   22   24 1    
    46   22   90 1    
    47   23   91 1    
    48   23   92 1    
    49   23   93 1    
    50   24   25 am   BACKBONE|DICT|INTERRES
    51   24   94 1    
    52   25   26 2    
    53   25   27 1    
    54   27   28 1    
    55   27   29 1    
    56   27   95 1    
    57   28   96 1    
    58   28   97 1    
    59   28   98 1    
    60   29   30 am   BACKBONE|DICT|INTERRES
    61   29   99 1    
    62   30   31 2    
    63   30   32 1    
    64   32   33 1    
    65   32   34 1    
    66   32  100 1    
    67   33  101 1    
    68   33  102 1    
    69   33  103 1    
    70   34   35 am   BACKBONE|DICT|INTERRES
    71   34  104 1    
    72   35   36 2    
    73   37   38 2    
    74   37   39 am   BACKBONE|DICT|INTERRES
    75   39   40 1    
    76   39  105 1    
    77   40   41 1    
    78   40   42 1    
    79   40  106 1    
    80   41  107 1    
    81   41  108 1    
    82   41  109 1    
    83   42   43 2    
    84   42   44 am   BACKBONE|DICT|INTERRES
    85   44   45 1    
    86   44  110 1    
    87   45   46 1    
    88   45   47 1    
    89   45  111 1    
    90   46  112 1    
    91   46  113 1    
    92   46  114 1    
    93   47   48 2    
    94   47   49 am   BACKBONE|DICT|INTERRES
    95   49   50 1    
    96   49  115 1    
    97   50   51 1    
    98   50   52 1    
    99   50  116 1    
   100   51  117 1    
   101   51  118 1    
   102   51  119 1    
   103   52   53 2    
   104   52   54 am   BACKBONE|DICT|INTERRES
   105   54   55 1    
   106   54  120 1    
   107   55   56 1    
   108   55   57 1    
   109   55  121 1    
   110   56  122 1    
   111   56  123 1    
   112   56  124 1    
   113   57   58 2    
   114   57   59 am   BACKBONE|DICT|INTERRES
   115   59   60 1    
   116   59  125 1    
   117   60   61 1    
   118   60   62 1    
   119   60  126 1    
   120   61  127 1    
   121   61  128 1    
   122   61  129 1    
   123   62   63 2    
   124   62   64 am   BACKBONE|DICT|INTERRES
   125   64   65 1    
   126   64  130 1    
   127   65   66 1    
   128   65   69 1    
   129   65  131 1    
   130   66   67 am   BACKBONE|DICT|INTERRES
   131   66   68 2    
   132   67  132 1    
   133   67  133 1    
   134   69   70 1    
   135   69  134 1    
   136   69  135 1    
   137   70   71 1    
   138   71  136 1    
   139   71  137 1    
@<TRIPOS>SUBSTRUCTURE
     1 UNK         1 GROUP             0       ****    0 ROOT    
