@<TRIPOS>MOLECULE
3R137
137   139    1
SMALL
USER_CHARGES


@<TRIPOS>ATOM
      1 CA         31.2279    0.4430   -0.9153 C.3       0 UNK        -0.2020 
      2 C          30.2144   -0.6242   -0.5302 C.2       0 UNK         0.4855 
      3 O          29.8391   -0.7196    0.6376 O.2       0 UNK        -0.5197 
      4 N          29.7610   -1.4178   -1.5108 N.am      1 UNK        -0.4892 
      5 CA         28.7949   -2.5225   -1.3744 C.3       1 UNK         0.0835 
      6 C6         29.2784   -3.6329   -0.3925 C.3       12 UNK        -0.0855 
      7 S7         28.9677   -5.3267   -1.0029 S.3       12 UNK        -0.2931 
      8 C8         30.4912   -5.6736   -1.9474 C.3       12 UNK         0.0378 
      9 C9         30.5509   -4.8327   -3.2137 C.ar      12 UNK        -0.0802 
     10 C10        31.3391   -3.6777   -3.2616 C.ar      12 UNK        -0.0944 
     11 C11        31.3091   -2.8408   -4.3818 C.ar      12 UNK        -0.0787 
     12 C12        30.4902   -3.1868   -5.4627 C.ar      12 UNK        -0.0862 
     13 C13        29.7467   -4.3700   -5.4558 C.ar      12 UNK        -0.0733 
     14 C14        29.7801   -5.1891   -4.3242 C.ar      12 UNK        -0.0832 
     15 C15        28.9471   -4.7738   -6.6901 C.3       12 UNK         0.0240 
     16 S16        27.1876   -5.1174   -6.3553 S.3       12 UNK        -0.2522 
     17 C17        26.5756   -3.5220   -5.7248 C.3       12 UNK        -0.0967 
     18 CA         26.3905   -2.4519   -6.8408 C.3       5 UNK         0.0660 
     19 N          25.0719   -1.8106   -6.7773 N.am      5 UNK        -0.4015 
     20 C          24.5931   -0.8964   -7.6369 C.2       4 UNK         0.4946 
     21 O          25.2348   -0.4413   -8.5811 O.2       4 UNK        -0.5353 
     22 CA         23.1549   -0.3945   -7.4177 C.3       4 UNK         0.0277 
     23 CB         22.1897   -1.1021   -8.3822 C.3       4 UNK        -0.1981 
     24 N          22.6936   -0.5850   -6.0420 N.am      4 UNK        -0.4209 
     25 C          23.0987    0.1589   -5.0049 C.2       3 UNK         0.4942 
     26 O          23.7911    1.1725   -5.1259 O.2       3 UNK        -0.5208 
     27 CA         22.6733   -0.3157   -3.5993 C.3       3 UNK         0.0250 
     28 CB         22.2453   -1.8012   -3.5423 C.3       3 UNK        -0.1990 
     29 N          23.7005   -0.0606   -2.5827 N.am      3 UNK        -0.4232 
     30 C          24.9856   -0.4477   -2.6017 C.2       2 UNK         0.4993 
     31 O          25.5173   -1.0540   -3.5405 O.2       2 UNK        -0.5286 
     32 CA         25.8221   -0.0386   -1.3714 C.3       2 UNK         0.0209 
     33 CB         25.0589   -0.1809   -0.0341 C.3       2 UNK        -0.1931 
     34 N          27.1088   -0.7396   -1.3196 N.am      2 UNK        -0.4546 
     35 C          27.3408   -2.0492   -1.1376 C.2       1 UNK         0.5154 
     36 O          26.4689   -2.8678   -0.8410 O.2       1 UNK        -0.5181 
     37 C          27.5306   -1.4190   -6.8117 C.2       5 UNK         0.5014 
     38 O          28.3620   -1.3910   -7.7225 O.2       5 UNK        -0.5248 
     39 N          27.5156   -0.5681   -5.7755 N.am      6 UNK        -0.4434 
     40 CA         28.4854    0.5088   -5.5715 C.3       6 UNK         0.0363 
     41 CB         28.2185    1.1769   -4.2148 C.3       6 UNK        -0.1936 
     42 C          28.4891    1.5564   -6.6961 C.2       6 UNK         0.5081 
     43 O          29.5538    2.0847   -7.0167 O.2       6 UNK        -0.5248 
     44 N          27.3119    1.8274   -7.2746 N.am      7 UNK        -0.4718 
     45 CA         27.1377    2.7483   -8.3963 C.3       7 UNK         0.0273 
     46 CB         25.6594    3.1569   -8.5058 C.3       7 UNK        -0.1935 
     47 C          27.6450    2.1512   -9.7176 C.2       7 UNK         0.5018 
     48 O          28.3857    2.8238  -10.4344 O.2       7 UNK        -0.5186 
     49 N          27.2489    0.9039  -10.0108 N.am      8 UNK        -0.4240 
     50 CA         27.5921    0.1814  -11.2381 C.3       8 UNK         0.0235 
     51 CB         26.7661   -1.1124  -11.3272 C.3       8 UNK        -0.2000 
     52 C          29.0905   -0.1280  -11.3595 C.2       8 UNK         0.4941 
     53 O          29.6622    0.0731  -12.4318 O.2       8 UNK        -0.5273 
     54 N          29.7009   -0.5991  -10.2639 N.am      9 UNK        -0.4262 
     55 CA         31.1333   -0.9040  -10.2013 C.3       9 UNK         0.0264 
     56 CB         31.3600   -1.9694   -9.1236 C.3       9 UNK        -0.1955 
     57 C          32.0066    0.3347   -9.9263 C.2       9 UNK         0.5031 
     58 O          33.2242    0.2499  -10.0869 O.2       9 UNK        -0.5390 
     59 N          31.3832    1.4425   -9.4969 N.am      10 UNK        -0.4204 
     60 CA         31.9641    2.7476   -9.1502 C.3       10 UNK         0.0237 
     61 CB         32.7140    3.3661  -10.3490 C.3       10 UNK        -0.1985 
     62 C          32.8123    2.7674   -7.8610 C.2       10 UNK         0.4970 
     63 O          33.3416    3.8260   -7.5180 O.2       10 UNK        -0.4914 
     64 N          32.9123    1.6354   -7.1526 N.am      11 UNK        -0.4285 
     65 CA         33.5674    1.5110   -5.8408 C.3       11 UNK         0.1007 
     66 C          32.7306    2.0390   -4.6401 C.2       11 UNK         0.5703 
     67 N          31.4767    2.4358   -4.8154 N.am      11 UNK        -0.7361 
     68 O          33.2381    2.1069   -3.5235 O.2       11 UNK        -0.4986 
     69 C69        34.1329    0.0841   -5.5926 C.3       12 UNK        -0.0947 
     70 S70        32.9951   -1.2878   -5.9838 S.3       12 UNK        -0.2240 
     71 C71        32.1402   -1.5583   -4.3979 C.3       12 UNK         0.0194 
     72 H72        31.3523    0.5224   -1.9948 H         1 UNK         0.0906 
     73 H73        30.9098    1.4165   -0.5428 H         1 UNK         0.0906 
     74 H74        32.1992    0.2132   -0.4780 H         1 UNK         0.0906 
     75 H75        30.1163   -1.2900   -2.4473 H         1 UNK         0.3140 
     76 H76        28.7484   -2.9555   -2.3740 H         1 UNK         0.1085 
     77 H77        30.3504   -3.5449   -0.2099 H         1 UNK         0.0836 
     78 H78        28.8150   -3.5176    0.5892 H         1 UNK         0.0836 
     79 H79        31.3657   -5.4984   -1.3187 H         1 UNK         0.0731 
     80 H80        30.5120   -6.7320   -2.2115 H         1 UNK         0.0731 
     81 H81        31.9448   -3.4098   -2.4064 H         1 UNK         0.1312 
     82 H82        30.4455   -2.5409   -6.3244 H         1 UNK         0.1406 
     83 H83        29.1861   -6.0930   -4.2986 H         1 UNK         0.1631 
     84 H84        29.3978   -5.6733   -7.1110 H         1 UNK         0.0717 
     85 H85        29.0171   -4.0135   -7.4689 H         1 UNK         0.0717 
     86 H86        27.2184   -3.1860   -4.9077 H         1 UNK         0.0934 
     87 H87        25.6211   -3.7391   -5.2426 H         1 UNK         0.0934 
     88 H88        26.4315   -2.9392   -7.8174 H         1 UNK         0.0739 
     89 H89        24.4842   -2.0835   -6.0048 H         1 UNK         0.3093 
     90 H90        23.1421    0.6737   -7.6457 H         1 UNK         0.0818 
     91 H91        21.1765   -0.7109   -8.2882 H         1 UNK         0.0819 
     92 H92        22.4972   -0.9532   -9.4185 H         1 UNK         0.0819 
     93 H93        22.1538   -2.1778   -8.2052 H         1 UNK         0.0819 
     94 H94        22.0977   -1.3809   -5.8637 H         1 UNK         0.3041 
     95 H95        21.8102    0.2922   -3.3242 H         1 UNK         0.0784 
     96 H96        21.3641   -1.9929   -4.1556 H         1 UNK         0.0793 
     97 H97        23.0416   -2.4682   -3.8755 H         1 UNK         0.0793 
     98 H98        21.9832   -2.0917   -2.5247 H         1 UNK         0.0793 
     99 H99        23.3886    0.4783   -1.7874 H         1 UNK         0.3024 
    100 H100       26.0619    1.0173   -1.5078 H         1 UNK         0.1171 
    101 H101       25.7155    0.0051    0.8161 H         1 UNK         0.0786 
    102 H102       24.6332   -1.1777    0.0878 H         1 UNK         0.0786 
    103 H103       24.2402    0.5354    0.0391 H         1 UNK         0.0786 
    104 H104       27.9148   -0.1770   -1.5467 H         1 UNK         0.2977 
    105 H105       26.7860   -0.6721   -5.0740 H         1 UNK         0.3127 
    106 H106       29.4808    0.0605   -5.5477 H         1 UNK         0.0770 
    107 H107       27.1827    1.5072   -4.1255 H         1 UNK         0.0814 
    108 H108       28.8489    2.0536   -4.0682 H         1 UNK         0.0814 
    109 H109       28.4282    0.4905   -3.3980 H         1 UNK         0.0814 
    110 H110       26.4944    1.3240   -6.9609 H         1 UNK         0.2983 
    111 H111       27.7223    3.6488   -8.1935 H         1 UNK         0.0947 
    112 H112       25.5120    3.8677   -9.3199 H         1 UNK         0.0806 
    113 H113       25.3124    3.6367   -7.5904 H         1 UNK         0.0806 
    114 H114       25.0122    2.3012   -8.7001 H         1 UNK         0.0806 
    115 H115       26.6119    0.4272   -9.3727 H         1 UNK         0.3000 
    116 H116       27.3178    0.8175  -12.0824 H         1 UNK         0.0850 
    117 H117       27.0025   -1.6679  -12.2357 H         1 UNK         0.0810 
    118 H118       25.6974   -0.8980  -11.3469 H         1 UNK         0.0810 
    119 H119       26.9572   -1.7716  -10.4791 H         1 UNK         0.0810 
    120 H120       29.1538   -0.7725   -9.4227 H         1 UNK         0.3040 
    121 H121       31.4521   -1.3219  -11.1587 H         1 UNK         0.0766 
    122 H122       32.4103   -2.2583   -9.0641 H         1 UNK         0.0812 
    123 H123       31.0676   -1.5866   -8.1490 H         1 UNK         0.0812 
    124 H124       30.7810   -2.8717   -9.3207 H         1 UNK         0.0812 
    125 H125       30.3810    1.3871   -9.3725 H         1 UNK         0.3205 
    126 H126       31.1078    3.3909   -8.9416 H         1 UNK         0.0754 
    127 H127       32.9970    4.3990  -10.1427 H         1 UNK         0.0769 
    128 H128       32.0905    3.3757  -11.2432 H         1 UNK         0.0769 
    129 H129       33.6295    2.8219  -10.5821 H         1 UNK         0.0769 
    130 H130       32.4477    0.8071   -7.4916 H         1 UNK         0.2981 
    131 H131       34.4372    2.1703   -5.8626 H         1 UNK         0.0541 
    132 H132       31.0274    2.3828   -5.7231 H         1 UNK         0.3459 
    133 H133       30.9760    2.8106   -4.0276 H         1 UNK         0.3459 
    134 H134       35.0064   -0.0545   -6.2313 H         1 UNK         0.0612 
    135 H135       34.5085   -0.0289   -4.5740 H         1 UNK         0.0612 
    136 H136       32.8832   -1.5789   -3.5991 H         1 UNK         0.0624 
    137 H137       31.4864   -0.7089   -4.2013 H         1 UNK         0.0624 
@<TRIPOS>BOND
     1    1    2 1    
     2    1   72 1    
     3    1   73 1    
     4    1   74 1    
     5    2    3 2    
     6    2    4 am   BACKBONE|DICT|INTERRES
     7    4    5 1    
     8    4   75 1    
     9    5    6 1    
    10    5   35 1    
    11    5   76 1    
    12    6    7 1    
    13    6   77 1    
    14    6   78 1    
    15    7    8 1    
    16    8    9 1    
    17    8   79 1    
    18    8   80 1    
    19    9   10 ar   
    20    9   14 ar   
    21   10   11 ar   
    22   10   81 1    
    23   11   12 ar   
    24   11   71 1    
    25   12   13 ar   
    26   12   82 1    
    27   13   14 ar   
    28   13   15 1    
    29   14   83 1    
    30   15   16 1    
    31   15   84 1    
    32   15   85 1    
    33   16   17 1    
    34   17   18 1    
    35   17   86 1    
    36   17   87 1    
    37   18   19 1    
    38   18   37 1    
    39   18   88 1    
    40   19   20 am   BACKBONE|DICT|INTERRES
    41   19   89 1    
    42   20   21 2    
    43   20   22 1    
    44   22   23 1    
    45   22   24 1    
    46   22   90 1    
    47   23   91 1    
    48   23   92 1    
    49   23   93 1    
    50   24   25 am   BACKBONE|DICT|INTERRES
    51   24   94 1    
    52   25   26 2    
    53   25   27 1    
    54   27   28 1    
    55   27   29 1    
    56   27   95 1    
    57   28   96 1    
    58   28   97 1    
    59   28   98 1    
    60   29   30 am   BACKBONE|DICT|INTERRES
    61   29   99 1    
    62   30   31 2    
    63   30   32 1    
    64   32   33 1    
    65   32   34 1    
    66   32  100 1    
    67   33  101 1    
    68   33  102 1    
    69   33  103 1    
    70   34   35 am   BACKBONE|DICT|INTERRES
    71   34  104 1    
    72   35   36 2    
    73   37   38 2    
    74   37   39 am   BACKBONE|DICT|INTERRES
    75   39   40 1    
    76   39  105 1    
    77   40   41 1    
    78   40   42 1    
    79   40  106 1    
    80   41  107 1    
    81   41  108 1    
    82   41  109 1    
    83   42   43 2    
    84   42   44 am   BACKBONE|DICT|INTERRES
    85   44   45 1    
    86   44  110 1    
    87   45   46 1    
    88   45   47 1    
    89   45  111 1    
    90   46  112 1    
    91   46  113 1    
    92   46  114 1    
    93   47   48 2    
    94   47   49 am   BACKBONE|DICT|INTERRES
    95   49   50 1    
    96   49  115 1    
    97   50   51 1    
    98   50   52 1    
    99   50  116 1    
   100   51  117 1    
   101   51  118 1    
   102   51  119 1    
   103   52   53 2    
   104   52   54 am   BACKBONE|DICT|INTERRES
   105   54   55 1    
   106   54  120 1    
   107   55   56 1    
   108   55   57 1    
   109   55  121 1    
   110   56  122 1    
   111   56  123 1    
   112   56  124 1    
   113   57   58 2    
   114   57   59 am   BACKBONE|DICT|INTERRES
   115   59   60 1    
   116   59  125 1    
   117   60   61 1    
   118   60   62 1    
   119   60  126 1    
   120   61  127 1    
   121   61  128 1    
   122   61  129 1    
   123   62   63 2    
   124   62   64 am   BACKBONE|DICT|INTERRES
   125   64   65 1    
   126   64  130 1    
   127   65   66 1    
   128   65   69 1    
   129   65  131 1    
   130   66   67 am   BACKBONE|DICT|INTERRES
   131   66   68 2    
   132   67  132 1    
   133   67  133 1    
   134   69   70 1    
   135   69  134 1    
   136   69  135 1    
   137   70   71 1    
   138   71  136 1    
   139   71  137 1    
@<TRIPOS>SUBSTRUCTURE
     1 UNK         1 GROUP             0       ****    0 ROOT    
