@<TRIPOS>MOLECULE
3R137
137   139    1
SMALL
USER_CHARGES


@<TRIPOS>ATOM
      1 CA         32.5726    0.4483   -1.5366 C.3       0 UNK        -0.2020 
      2 C          31.4339    0.1980   -2.5123 C.2       0 UNK         0.4855 
      3 O          31.3419    0.8837   -3.5298 O.2       0 UNK        -0.5197 
      4 N          30.5728   -0.7824   -2.2213 N.am      1 UNK        -0.4892 
      5 CA         29.4069   -1.1444   -3.0336 C.3       1 UNK         0.0835 
      6 C6         28.7624   -2.4811   -2.5710 C.3       12 UNK        -0.0855 
      7 S7         29.9632   -3.8172   -2.2405 S.3       12 UNK        -0.2931 
      8 C8         29.3432   -5.1756   -3.2834 C.3       12 UNK         0.0378 
      9 C9         29.6556   -4.9792   -4.7611 C.ar      12 UNK        -0.0802 
     10 C10        30.9660   -4.7265   -5.1764 C.ar      12 UNK        -0.0944 
     11 C11        31.2727   -4.6041   -6.5328 C.ar      12 UNK        -0.0787 
     12 C12        30.2529   -4.7376   -7.4809 C.ar      12 UNK        -0.0862 
     13 C13        28.9347   -4.9960   -7.0853 C.ar      12 UNK        -0.0733 
     14 C14        28.6465   -5.1164   -5.7191 C.ar      12 UNK        -0.0832 
     15 C15        27.8645   -5.2117   -8.1575 C.3       12 UNK         0.0240 
     16 S16        26.1701   -4.7315   -7.6710 S.3       12 UNK        -0.2522 
     17 C17        26.3257   -2.9201   -7.6681 C.3       12 UNK        -0.0967 
     18 CA         25.0558   -2.1947   -7.1550 C.3       5 UNK         0.0660 
     19 N          24.8695   -2.3707   -5.7194 N.am      5 UNK        -0.4015 
     20 C          23.9980   -3.2041   -5.1404 C.2       4 UNK         0.4946 
     21 O          23.1968   -3.9079   -5.7567 O.2       4 UNK        -0.5353 
     22 CA         24.0323   -3.2754   -3.6049 C.3       4 UNK         0.0277 
     23 CB         25.0437   -4.3387   -3.1446 C.3       4 UNK        -0.1981 
     24 N          24.3577   -1.9888   -2.9828 N.am      4 UNK        -0.4209 
     25 C          23.4880   -0.9769   -2.8505 C.2       3 UNK         0.4942 
     26 O          22.3170   -1.0206   -3.2287 O.2       3 UNK        -0.5208 
     27 CA         24.0213    0.2994   -2.1832 C.3       3 UNK         0.0250 
     28 CB         24.1253    0.1211   -0.6595 C.3       3 UNK        -0.1990 
     29 N          25.3222    0.7002   -2.7202 N.am      3 UNK        -0.4232 
     30 C          25.5172    1.2589   -3.9203 C.2       2 UNK         0.4993 
     31 O          24.6023    1.5140   -4.7009 O.2       2 UNK        -0.5286 
     32 CA         26.9645    1.6149   -4.3111 C.3       2 UNK         0.0209 
     33 CB         27.4005    2.9145   -3.6009 C.3       2 UNK        -0.1931 
     34 N          27.9470    0.5325   -4.1164 N.am      2 UNK        -0.4546 
     35 C          28.3604   -0.0133   -2.9639 C.2       1 UNK         0.5154 
     36 O          27.9283    0.3203   -1.8568 O.2       1 UNK        -0.5181 
     37 C          25.1658   -0.6851   -7.3946 C.2       5 UNK         0.5014 
     38 O          26.2308   -0.1182   -7.1489 O.2       5 UNK        -0.5248 
     39 N          24.0842   -0.0577   -7.8769 N.am      6 UNK        -0.4434 
     40 CA         24.0154    1.3841   -8.1578 C.3       6 UNK         0.0363 
     41 CB         22.5807    1.7560   -8.5653 C.3       6 UNK        -0.1936 
     42 C          25.0193    1.8662   -9.2216 C.2       6 UNK         0.5081 
     43 O          25.4522    3.0174   -9.1730 O.2       6 UNK        -0.5248 
     44 N          25.3812    0.9729  -10.1509 N.am      7 UNK        -0.4718 
     45 CA         26.3768    1.2081  -11.1968 C.3       7 UNK         0.0273 
     46 CB         26.0757    0.2687  -12.3774 C.3       7 UNK        -0.1935 
     47 C          27.8313    1.0228  -10.7213 C.2       7 UNK         0.5018 
     48 O          28.7405    1.3550  -11.4833 O.2       7 UNK        -0.5186 
     49 N          28.0430    0.4857   -9.5109 N.am      8 UNK        -0.4240 
     50 CA         29.3598    0.1644   -8.9648 C.3       8 UNK         0.0235 
     51 CB         29.5496   -1.3619   -8.9518 C.3       8 UNK        -0.2000 
     52 C          29.4987    0.8010   -7.5775 C.2       8 UNK         0.4941 
     53 O          29.4427    0.1083   -6.5583 O.2       8 UNK        -0.5273 
     54 N          29.6666    2.1272   -7.5741 N.am      9 UNK        -0.4262 
     55 CA         30.0424    2.9081   -6.3994 C.3       9 UNK         0.0264 
     56 CB         29.3243    4.2665   -6.4413 C.3       9 UNK        -0.1955 
     57 C          31.5655    3.0935   -6.3917 C.2       9 UNK         0.5031 
     58 O          32.1553    3.2981   -7.4561 O.2       9 UNK        -0.5390 
     59 N          32.1608    3.0125   -5.1943 N.am      10 UNK        -0.4204 
     60 CA         33.6031    2.9669   -4.9171 C.3       10 UNK         0.0237 
     61 CB         34.3055    4.2773   -5.3344 C.3       10 UNK        -0.1985 
     62 C          34.2634    1.7010   -5.5024 C.2       10 UNK         0.4970 
     63 O          35.3958    1.7602   -5.9856 O.2       10 UNK        -0.4914 
     64 N          33.5278    0.5828   -5.4596 N.am      11 UNK        -0.4285 
     65 CA         33.9546   -0.7305   -5.9537 C.3       11 UNK         0.1007 
     66 C          34.9954   -1.4140   -5.0246 C.2       11 UNK         0.5703 
     67 N          35.8055   -2.3161   -5.5613 N.am      11 UNK        -0.7361 
     68 O          35.0578   -1.1587   -3.8232 O.2       11 UNK        -0.4986 
     69 C69        32.7257   -1.6386   -6.2275 C.3       12 UNK        -0.0947 
     70 S70        32.9833   -2.7239   -7.6712 S.3       12 UNK        -0.2240 
     71 C71        32.7154   -4.3791   -6.9683 C.3       12 UNK         0.0194 
     72 H72        32.5616   -0.2583   -0.7071 H         1 UNK         0.0906 
     73 H73        33.5303    0.3552   -2.0479 H         1 UNK         0.0906 
     74 H74        32.5007    1.4557   -1.1278 H         1 UNK         0.0906 
     75 H75        30.6892   -1.3219   -1.3754 H         1 UNK         0.3140 
     76 H76        29.7429   -1.2604   -4.0674 H         1 UNK         0.1085 
     77 H77        28.0456   -2.8155   -3.3221 H         1 UNK         0.0836 
     78 H78        28.1929   -2.3447   -1.6490 H         1 UNK         0.0836 
     79 H79        29.8116   -6.1043   -2.9552 H         1 UNK         0.0731 
     80 H80        28.2723   -5.2991   -3.1152 H         1 UNK         0.0731 
     81 H81        31.7519   -4.6406   -4.4384 H         1 UNK         0.1312 
     82 H82        30.4945   -4.6579   -8.5322 H         1 UNK         0.1406 
     83 H83        27.6393   -5.3444   -5.3994 H         1 UNK         0.1631 
     84 H84        27.8570   -6.2703   -8.4197 H         1 UNK         0.0717 
     85 H85        28.1284   -4.6716   -9.0683 H         1 UNK         0.0717 
     86 H86        26.5639   -2.6087   -8.6874 H         1 UNK         0.0934 
     87 H87        27.1832   -2.6528   -7.0479 H         1 UNK         0.0934 
     88 H88        24.1886   -2.5679   -7.7044 H         1 UNK         0.0739 
     89 H89        25.4478   -1.7837   -5.1373 H         1 UNK         0.3093 
     90 H90        23.0408   -3.5831   -3.2646 H         1 UNK         0.0818 
     91 H91        26.0550   -4.1090   -3.4786 H         1 UNK         0.0819 
     92 H92        25.0587   -4.4322   -2.0585 H         1 UNK         0.0819 
     93 H93        24.7859   -5.3186   -3.5489 H         1 UNK         0.0819 
     94 H94        25.2893   -1.8740   -2.6134 H         1 UNK         0.3041 
     95 H95        23.3071    1.1018   -2.3813 H         1 UNK         0.0784 
     96 H96        23.1654   -0.1766   -0.2349 H         1 UNK         0.0793 
     97 H97        24.8550   -0.6421   -0.3862 H         1 UNK         0.0793 
     98 H98        24.4184    1.0517   -0.1729 H         1 UNK         0.0793 
     99 H99        26.1470    0.5481   -2.1420 H         1 UNK         0.3024 
    100 H100       26.9604    1.8108   -5.3854 H         1 UNK         0.1171 
    101 H101       28.4312    3.1793   -3.8272 H         1 UNK         0.0786 
    102 H102       27.3168    2.8366   -2.5164 H         1 UNK         0.0786 
    103 H103       26.7742    3.7518   -3.9113 H         1 UNK         0.0786 
    104 H104       28.3850    0.2097   -4.9795 H         1 UNK         0.2977 
    105 H105       23.2409   -0.5901   -8.0389 H         1 UNK         0.3127 
    106 H106       24.2542    1.9144   -7.2348 H         1 UNK         0.0770 
    107 H107       22.2692    1.2353   -9.4717 H         1 UNK         0.0814 
    108 H108       22.4959    2.8263   -8.7590 H         1 UNK         0.0814 
    109 H109       21.8689    1.5157   -7.7753 H         1 UNK         0.0814 
    110 H110       24.9646    0.0539  -10.1170 H         1 UNK         0.2983 
    111 H111       26.2825    2.2381  -11.5488 H         1 UNK         0.0947 
    112 H112       26.7680    0.4419  -13.2026 H         1 UNK         0.0806 
    113 H113       25.0693    0.4277  -12.7652 H         1 UNK         0.0806 
    114 H114       26.1655   -0.7804  -12.0926 H         1 UNK         0.0806 
    115 H115       27.2580    0.3161   -8.8896 H         1 UNK         0.3000 
    116 H116       30.1522    0.5857   -9.5873 H         1 UNK         0.0850 
    117 H117       30.5585   -1.6165   -8.6352 H         1 UNK         0.0810 
    118 H118       29.4007   -1.7944   -9.9410 H         1 UNK         0.0810 
    119 H119       28.8679   -1.8519   -8.2618 H         1 UNK         0.0810 
    120 H120       29.7341    2.6066   -8.4609 H         1 UNK         0.3040 
    121 H121       29.7470    2.3778   -5.4932 H         1 UNK         0.0766 
    122 H122       29.6059    4.8463   -7.3213 H         1 UNK         0.0812 
    123 H123       28.2414    4.1407   -6.4559 H         1 UNK         0.0812 
    124 H124       29.5704    4.8654   -5.5636 H         1 UNK         0.0812 
    125 H125       31.5812    2.7279   -4.4106 H         1 UNK         0.3205 
    126 H126       33.6974    2.8770   -3.8338 H         1 UNK         0.0754 
    127 H127       35.3397    4.2917   -4.9883 H         1 UNK         0.0769 
    128 H128       33.8088    5.1474   -4.9052 H         1 UNK         0.0769 
    129 H129       34.3261    4.4023   -6.4173 H         1 UNK         0.0769 
    130 H130       32.6364    0.6136   -4.9747 H         1 UNK         0.2981 
    131 H131       34.4558   -0.5376   -6.9047 H         1 UNK         0.0541 
    132 H132       36.4822   -2.7790   -4.9754 H         1 UNK         0.3459 
    133 H133       35.7442   -2.5481   -6.5404 H         1 UNK         0.3459 
    134 H134       31.8503   -1.0330   -6.4626 H         1 UNK         0.0612 
    135 H135       32.4481   -2.2160   -5.3440 H         1 UNK         0.0612 
    136 H136       32.9801   -5.1242   -7.7196 H         1 UNK         0.0624 
    137 H137       33.4048   -4.5271   -6.1355 H         1 UNK         0.0624 
@<TRIPOS>BOND
     1    1    2 1    
     2    1   72 1    
     3    1   73 1    
     4    1   74 1    
     5    2    3 2    
     6    2    4 am   BACKBONE|DICT|INTERRES
     7    4    5 1    
     8    4   75 1    
     9    5    6 1    
    10    5   35 1    
    11    5   76 1    
    12    6    7 1    
    13    6   77 1    
    14    6   78 1    
    15    7    8 1    
    16    8    9 1    
    17    8   79 1    
    18    8   80 1    
    19    9   10 ar   
    20    9   14 ar   
    21   10   11 ar   
    22   10   81 1    
    23   11   12 ar   
    24   11   71 1    
    25   12   13 ar   
    26   12   82 1    
    27   13   14 ar   
    28   13   15 1    
    29   14   83 1    
    30   15   16 1    
    31   15   84 1    
    32   15   85 1    
    33   16   17 1    
    34   17   18 1    
    35   17   86 1    
    36   17   87 1    
    37   18   19 1    
    38   18   37 1    
    39   18   88 1    
    40   19   20 am   BACKBONE|DICT|INTERRES
    41   19   89 1    
    42   20   21 2    
    43   20   22 1    
    44   22   23 1    
    45   22   24 1    
    46   22   90 1    
    47   23   91 1    
    48   23   92 1    
    49   23   93 1    
    50   24   25 am   BACKBONE|DICT|INTERRES
    51   24   94 1    
    52   25   26 2    
    53   25   27 1    
    54   27   28 1    
    55   27   29 1    
    56   27   95 1    
    57   28   96 1    
    58   28   97 1    
    59   28   98 1    
    60   29   30 am   BACKBONE|DICT|INTERRES
    61   29   99 1    
    62   30   31 2    
    63   30   32 1    
    64   32   33 1    
    65   32   34 1    
    66   32  100 1    
    67   33  101 1    
    68   33  102 1    
    69   33  103 1    
    70   34   35 am   BACKBONE|DICT|INTERRES
    71   34  104 1    
    72   35   36 2    
    73   37   38 2    
    74   37   39 am   BACKBONE|DICT|INTERRES
    75   39   40 1    
    76   39  105 1    
    77   40   41 1    
    78   40   42 1    
    79   40  106 1    
    80   41  107 1    
    81   41  108 1    
    82   41  109 1    
    83   42   43 2    
    84   42   44 am   BACKBONE|DICT|INTERRES
    85   44   45 1    
    86   44  110 1    
    87   45   46 1    
    88   45   47 1    
    89   45  111 1    
    90   46  112 1    
    91   46  113 1    
    92   46  114 1    
    93   47   48 2    
    94   47   49 am   BACKBONE|DICT|INTERRES
    95   49   50 1    
    96   49  115 1    
    97   50   51 1    
    98   50   52 1    
    99   50  116 1    
   100   51  117 1    
   101   51  118 1    
   102   51  119 1    
   103   52   53 2    
   104   52   54 am   BACKBONE|DICT|INTERRES
   105   54   55 1    
   106   54  120 1    
   107   55   56 1    
   108   55   57 1    
   109   55  121 1    
   110   56  122 1    
   111   56  123 1    
   112   56  124 1    
   113   57   58 2    
   114   57   59 am   BACKBONE|DICT|INTERRES
   115   59   60 1    
   116   59  125 1    
   117   60   61 1    
   118   60   62 1    
   119   60  126 1    
   120   61  127 1    
   121   61  128 1    
   122   61  129 1    
   123   62   63 2    
   124   62   64 am   BACKBONE|DICT|INTERRES
   125   64   65 1    
   126   64  130 1    
   127   65   66 1    
   128   65   69 1    
   129   65  131 1    
   130   66   67 am   BACKBONE|DICT|INTERRES
   131   66   68 2    
   132   67  132 1    
   133   67  133 1    
   134   69   70 1    
   135   69  134 1    
   136   69  135 1    
   137   70   71 1    
   138   71  136 1    
   139   71  137 1    
@<TRIPOS>SUBSTRUCTURE
     1 UNK         1 GROUP             0       ****    0 ROOT    
