@<TRIPOS>MOLECULE
3R137
137   139    1
SMALL
USER_CHARGES


@<TRIPOS>ATOM
      1 CA         25.4373   -7.3140   -3.3150 C.3       0 UNK        -0.2020 
      2 C          26.1108   -6.8197   -4.5938 C.2       0 UNK         0.4855 
      3 O          26.0036   -7.4848   -5.6224 O.2       0 UNK        -0.5197 
      4 N          26.8260   -5.6854   -4.5893 N.am      1 UNK        -0.4892 
      5 CA         27.0155   -4.7383   -3.4806 C.3       1 UNK         0.0835 
      6 C6         28.0720   -3.6576   -3.8287 C.3       12 UNK        -0.0855 
      7 S7         29.6743   -4.3694   -4.3397 S.3       12 UNK        -0.2931 
      8 C8         30.8147   -3.7183   -3.0774 C.3       12 UNK         0.0378 
      9 C9         30.9532   -2.2038   -3.1556 C.ar      12 UNK        -0.0802 
     10 C10        31.5716   -1.6100   -4.2603 C.ar      12 UNK        -0.0944 
     11 C11        31.6994   -0.2209   -4.3403 C.ar      12 UNK        -0.0787 
     12 C12        31.2238    0.5753   -3.2964 C.ar      12 UNK        -0.0862 
     13 C13        30.5858   -0.0043   -2.1958 C.ar      12 UNK        -0.0733 
     14 C14        30.4605   -1.3950   -2.1266 C.ar      12 UNK        -0.0832 
     15 C15        30.0139    0.8737   -1.0916 C.3       12 UNK         0.0240 
     16 S16        28.8009    2.0778   -1.7253 S.3       12 UNK        -0.2522 
     17 C17        27.5314    0.9986   -2.4779 C.3       12 UNK        -0.0967 
     18 CA         27.5764    0.9253   -4.0286 C.3       5 UNK         0.0660 
     19 N          26.6080   -0.0501   -4.5413 N.am      5 UNK        -0.4015 
     20 C          26.4708   -0.3955   -5.8335 C.2       4 UNK         0.4946 
     21 O          27.2825   -0.0841   -6.7073 O.2       4 UNK        -0.5353 
     22 CA         25.1842   -1.1409   -6.2504 C.3       4 UNK         0.0277 
     23 CB         25.4814   -2.5310   -6.8320 C.3       4 UNK        -0.1981 
     24 N          24.1847   -1.2538   -5.1831 N.am      4 UNK        -0.4209 
     25 C          23.4650   -0.2227   -4.7117 C.2       3 UNK         0.4942 
     26 O          23.5704    0.9255   -5.1438 O.2       3 UNK        -0.5208 
     27 CA         22.5208   -0.4885   -3.5233 C.3       3 UNK         0.0250 
     28 CB         21.0937   -0.7592   -4.0248 C.3       3 UNK        -0.1990 
     29 N          22.9452   -1.5876   -2.6491 N.am      3 UNK        -0.4232 
     30 C          24.1187   -1.6545   -2.0044 C.2       2 UNK         0.4993 
     31 O          24.9780   -0.7748   -2.0664 O.2       2 UNK        -0.5286 
     32 CA         24.4337   -2.9423   -1.2188 C.3       2 UNK         0.0209 
     33 CB         23.2309   -3.9016   -1.0583 C.3       2 UNK        -0.1931 
     34 N          25.5794   -3.6506   -1.8083 N.am      2 UNK        -0.4546 
     35 C          25.6870   -4.0614   -3.0813 C.2       1 UNK         0.5154 
     36 O          24.8020   -3.9040   -3.9274 O.2       1 UNK        -0.5181 
     37 C          27.3650    2.3117   -4.6804 C.2       5 UNK         0.5014 
     38 O          28.3397    2.9401   -5.0942 O.2       5 UNK        -0.5248 
     39 N          26.0983    2.7394   -4.8205 N.am      6 UNK        -0.4434 
     40 CA         25.7209    4.0044   -5.4617 C.3       6 UNK         0.0363 
     41 CB         24.2506    4.3224   -5.1476 C.3       6 UNK        -0.1936 
     42 C          25.9624    4.0074   -6.9819 C.2       6 UNK         0.5081 
     43 O          26.2008    5.0708   -7.5539 O.2       6 UNK        -0.5248 
     44 N          25.9245    2.8207   -7.6032 N.am      7 UNK        -0.4718 
     45 CA         26.2801    2.6009   -9.0079 C.3       7 UNK         0.0273 
     46 CB         25.5801    1.3245   -9.5056 C.3       7 UNK        -0.1935 
     47 C          27.8022    2.5032   -9.2341 C.2       7 UNK         0.5018 
     48 O          28.2294    2.4970  -10.3891 O.2       7 UNK        -0.5186 
     49 N          28.5814    2.4109   -8.1440 N.am      8 UNK        -0.4240 
     50 CA         30.0339    2.2205   -8.0865 C.3       8 UNK         0.0235 
     51 CB         30.7769    3.4597   -8.6287 C.3       8 UNK        -0.2000 
     52 C          30.4947    0.9041   -8.7427 C.2       8 UNK         0.4941 
     53 O          31.5457    0.8758   -9.3891 O.2       8 UNK        -0.5273 
     54 N          29.7024   -0.1647   -8.5640 N.am      9 UNK        -0.4262 
     55 CA         29.9157   -1.4844   -9.1632 C.3       9 UNK         0.0264 
     56 CB         28.7685   -2.4197   -8.7562 C.3       9 UNK        -0.1955 
     57 C          31.2811   -2.0927   -8.8008 C.2       9 UNK         0.5031 
     58 O          31.5220   -2.3955   -7.6329 O.2       9 UNK        -0.5390 
     59 N          32.1415   -2.2367   -9.8177 N.am      10 UNK        -0.4204 
     60 CA         33.5203   -2.7406   -9.7688 C.3       10 UNK         0.0237 
     61 CB         33.5806   -4.1761   -9.2012 C.3       10 UNK        -0.1985 
     62 C          34.5398   -1.8011   -9.0892 C.2       10 UNK         0.4970 
     63 O          35.6987   -2.1998   -8.9576 O.2       10 UNK        -0.4914 
     64 N          34.1397   -0.5759   -8.7177 N.am      11 UNK        -0.4285 
     65 CA         35.0572    0.4752   -8.2385 C.3       11 UNK         0.1007 
     66 C          35.6071    1.3752   -9.3830 C.2       11 UNK         0.5703 
     67 N          35.0995    1.2885  -10.6076 N.am      11 UNK        -0.7361 
     68 O          36.5282    2.1573   -9.1593 O.2       11 UNK        -0.4986 
     69 C69        34.4357    1.3339   -7.1070 C.3       12 UNK        -0.0947 
     70 S70        34.1045    0.3775   -5.5887 S.3       12 UNK        -0.2240 
     71 C71        32.2930    0.4260   -5.5787 C.3       12 UNK         0.0194 
     72 H72        25.1954   -8.3732   -3.4012 H         1 UNK         0.0906 
     73 H73        26.0807   -7.1998   -2.4440 H         1 UNK         0.0906 
     74 H74        24.5063   -6.7751   -3.1406 H         1 UNK         0.0906 
     75 H75        27.2728   -5.4076   -5.4508 H         1 UNK         0.3140 
     76 H76        27.3844   -5.3013   -2.6213 H         1 UNK         0.1085 
     77 H77        28.2258   -2.9937   -2.9767 H         1 UNK         0.0836 
     78 H78        27.7285   -3.0155   -4.6401 H         1 UNK         0.0836 
     79 H79        31.7959   -4.1722   -3.2230 H         1 UNK         0.0731 
     80 H80        30.4757   -4.0331   -2.0892 H         1 UNK         0.0731 
     81 H81        31.9353   -2.2295   -5.0690 H         1 UNK         0.1312 
     82 H82        31.3117    1.6517   -3.3566 H         1 UNK         0.1406 
     83 H83        29.9724   -1.8483   -1.2744 H         1 UNK         0.1631 
     84 H84        30.8296    1.4140   -0.6095 H         1 UNK         0.0717 
     85 H85        29.5406    0.2713   -0.3146 H         1 UNK         0.0717 
     86 H86        27.6311   -0.0038   -2.0585 H         1 UNK         0.0934 
     87 H87        26.5563    1.3587   -2.1448 H         1 UNK         0.0934 
     88 H88        28.5649    0.5715   -4.3272 H         1 UNK         0.0739 
     89 H89        25.9094   -0.3638   -3.8754 H         1 UNK         0.3093 
     90 H90        24.7328   -0.5495   -7.0495 H         1 UNK         0.0818 
     91 H91        26.0814   -2.4509   -7.7359 H         1 UNK         0.0819 
     92 H92        24.5636   -3.0511   -7.1062 H         1 UNK         0.0819 
     93 H93        26.0252   -3.1644   -6.1349 H         1 UNK         0.0819 
     94 H94        24.0925   -2.1659   -4.7446 H         1 UNK         0.3041 
     95 H95        22.5042    0.4200   -2.9177 H         1 UNK         0.0784 
     96 H96        20.7418    0.0562   -4.6588 H         1 UNK         0.0793 
     97 H97        21.0394   -1.6762   -4.6131 H         1 UNK         0.0793 
     98 H98        20.3909   -0.8480   -3.1961 H         1 UNK         0.0793 
     99 H99        22.3168   -2.3744   -2.5729 H         1 UNK         0.3024 
    100 H100       24.7363   -2.6181   -0.2215 H         1 UNK         0.1171 
    101 H101       23.4959   -4.7528   -0.4308 H         1 UNK         0.0786 
    102 H102       22.3893   -3.4037   -0.5746 H         1 UNK         0.0786 
    103 H103       22.8822   -4.2988   -2.0124 H         1 UNK         0.0786 
    104 H104       26.3664   -3.7848   -1.1883 H         1 UNK         0.2977 
    105 H105       25.3354    2.1417   -4.5247 H         1 UNK         0.3127 
    106 H106       26.3386    4.7956   -5.0309 H         1 UNK         0.0770 
    107 H107       23.5756    3.5779   -5.5713 H         1 UNK         0.0814 
    108 H108       23.9657    5.2905   -5.5618 H         1 UNK         0.0814 
    109 H109       24.0726    4.3655   -4.0731 H         1 UNK         0.0814 
    110 H110       25.7209    1.9991   -7.0525 H         1 UNK         0.2983 
    111 H111       25.9157    3.4435   -9.6001 H         1 UNK         0.0947 
    112 H112       25.7431    1.1850  -10.5751 H         1 UNK         0.0806 
    113 H113       24.5025    1.3714   -9.3472 H         1 UNK         0.0806 
    114 H114       25.9578    0.4329   -9.0048 H         1 UNK         0.0806 
    115 H115       28.1213    2.4248   -7.2419 H         1 UNK         0.3000 
    116 H116       30.2718    2.1326   -7.0270 H         1 UNK         0.0850 
    117 H117       31.8514    3.3768   -8.4624 H         1 UNK         0.0810 
    118 H118       30.4425    4.3705   -8.1321 H         1 UNK         0.0810 
    119 H119       30.6245    3.5855   -9.7011 H         1 UNK         0.0810 
    120 H120       28.8784   -0.0652   -7.9771 H         1 UNK         0.3040 
    121 H121       29.8670   -1.3551  -10.2464 H         1 UNK         0.0766 
    122 H122       27.8192   -2.0555   -9.1472 H         1 UNK         0.0812 
    123 H123       28.6835   -2.5041   -7.6715 H         1 UNK         0.0812 
    124 H124       28.9190   -3.4247   -9.1527 H         1 UNK         0.0812 
    125 H125       31.8386   -1.9204  -10.7293 H         1 UNK         0.3205 
    126 H126       33.8386   -2.7986  -10.8108 H         1 UNK         0.0754 
    127 H127       32.8692   -4.8324   -9.7026 H         1 UNK         0.0769 
    128 H128       33.3656   -4.2008   -8.1325 H         1 UNK         0.0769 
    129 H129       34.5714   -4.6108   -9.3392 H         1 UNK         0.0769 
    130 H130       33.1812   -0.2883   -8.8827 H         1 UNK         0.2981 
    131 H131       35.9404   -0.0015   -7.8092 H         1 UNK         0.0541 
    132 H132       35.4723    1.8740  -11.3382 H         1 UNK         0.3459 
    133 H133       34.3279    0.6706  -10.7997 H         1 UNK         0.3459 
    134 H134       35.1126    2.1417   -6.8225 H         1 UNK         0.0612 
    135 H135       33.5231    1.8181   -7.4575 H         1 UNK         0.0612 
    136 H136       31.9709    1.4653   -5.6457 H         1 UNK         0.0624 
    137 H137       31.9200   -0.0798   -6.4671 H         1 UNK         0.0624 
@<TRIPOS>BOND
     1    1    2 1    
     2    1   72 1    
     3    1   73 1    
     4    1   74 1    
     5    2    3 2    
     6    2    4 am   BACKBONE|DICT|INTERRES
     7    4    5 1    
     8    4   75 1    
     9    5    6 1    
    10    5   35 1    
    11    5   76 1    
    12    6    7 1    
    13    6   77 1    
    14    6   78 1    
    15    7    8 1    
    16    8    9 1    
    17    8   79 1    
    18    8   80 1    
    19    9   10 ar   
    20    9   14 ar   
    21   10   11 ar   
    22   10   81 1    
    23   11   12 ar   
    24   11   71 1    
    25   12   13 ar   
    26   12   82 1    
    27   13   14 ar   
    28   13   15 1    
    29   14   83 1    
    30   15   16 1    
    31   15   84 1    
    32   15   85 1    
    33   16   17 1    
    34   17   18 1    
    35   17   86 1    
    36   17   87 1    
    37   18   19 1    
    38   18   37 1    
    39   18   88 1    
    40   19   20 am   BACKBONE|DICT|INTERRES
    41   19   89 1    
    42   20   21 2    
    43   20   22 1    
    44   22   23 1    
    45   22   24 1    
    46   22   90 1    
    47   23   91 1    
    48   23   92 1    
    49   23   93 1    
    50   24   25 am   BACKBONE|DICT|INTERRES
    51   24   94 1    
    52   25   26 2    
    53   25   27 1    
    54   27   28 1    
    55   27   29 1    
    56   27   95 1    
    57   28   96 1    
    58   28   97 1    
    59   28   98 1    
    60   29   30 am   BACKBONE|DICT|INTERRES
    61   29   99 1    
    62   30   31 2    
    63   30   32 1    
    64   32   33 1    
    65   32   34 1    
    66   32  100 1    
    67   33  101 1    
    68   33  102 1    
    69   33  103 1    
    70   34   35 am   BACKBONE|DICT|INTERRES
    71   34  104 1    
    72   35   36 2    
    73   37   38 2    
    74   37   39 am   BACKBONE|DICT|INTERRES
    75   39   40 1    
    76   39  105 1    
    77   40   41 1    
    78   40   42 1    
    79   40  106 1    
    80   41  107 1    
    81   41  108 1    
    82   41  109 1    
    83   42   43 2    
    84   42   44 am   BACKBONE|DICT|INTERRES
    85   44   45 1    
    86   44  110 1    
    87   45   46 1    
    88   45   47 1    
    89   45  111 1    
    90   46  112 1    
    91   46  113 1    
    92   46  114 1    
    93   47   48 2    
    94   47   49 am   BACKBONE|DICT|INTERRES
    95   49   50 1    
    96   49  115 1    
    97   50   51 1    
    98   50   52 1    
    99   50  116 1    
   100   51  117 1    
   101   51  118 1    
   102   51  119 1    
   103   52   53 2    
   104   52   54 am   BACKBONE|DICT|INTERRES
   105   54   55 1    
   106   54  120 1    
   107   55   56 1    
   108   55   57 1    
   109   55  121 1    
   110   56  122 1    
   111   56  123 1    
   112   56  124 1    
   113   57   58 2    
   114   57   59 am   BACKBONE|DICT|INTERRES
   115   59   60 1    
   116   59  125 1    
   117   60   61 1    
   118   60   62 1    
   119   60  126 1    
   120   61  127 1    
   121   61  128 1    
   122   61  129 1    
   123   62   63 2    
   124   62   64 am   BACKBONE|DICT|INTERRES
   125   64   65 1    
   126   64  130 1    
   127   65   66 1    
   128   65   69 1    
   129   65  131 1    
   130   66   67 am   BACKBONE|DICT|INTERRES
   131   66   68 2    
   132   67  132 1    
   133   67  133 1    
   134   69   70 1    
   135   69  134 1    
   136   69  135 1    
   137   70   71 1    
   138   71  136 1    
   139   71  137 1    
@<TRIPOS>SUBSTRUCTURE
     1 UNK         1 GROUP             0       ****    0 ROOT    
