@<TRIPOS>MOLECULE
3R137
137   139    1
SMALL
USER_CHARGES


@<TRIPOS>ATOM
      1 CA         28.4133   -5.6771   -5.7763 C.3       0 UNK        -0.2020 
      2 C          27.7116   -5.1070   -4.5534 C.2       0 UNK         0.4855 
      3 O          27.2486   -3.9695   -4.5937 O.2       0 UNK        -0.5197 
      4 N          27.6034   -5.8993   -3.4768 N.am      1 UNK        -0.4892 
      5 CA         27.0547   -5.5240   -2.1586 C.3       1 UNK         0.0835 
      6 C6         27.9397   -4.4927   -1.4045 C.3       12 UNK        -0.0855 
      7 S7         29.6408   -5.1058   -1.1564 S.3       12 UNK        -0.2931 
      8 C8         30.4907   -3.5927   -0.5896 C.3       12 UNK         0.0378 
      9 C9         30.5714   -2.4716   -1.6263 C.ar      12 UNK        -0.0802 
     10 C10        30.7004   -2.7375   -2.9954 C.ar      12 UNK        -0.0944 
     11 C11        30.7924   -1.6933   -3.9192 C.ar      12 UNK        -0.0787 
     12 C12        30.7832   -0.3702   -3.4684 C.ar      12 UNK        -0.0862 
     13 C13        30.6509   -0.0875   -2.1063 C.ar      12 UNK        -0.0733 
     14 C14        30.5455   -1.1416   -1.1933 C.ar      12 UNK        -0.0832 
     15 C15        30.6310    1.3519   -1.6116 C.3       12 UNK         0.0240 
     16 S16        28.9413    2.0351   -1.5875 S.3       12 UNK        -0.2522 
     17 C17        28.7759    2.7271   -3.2691 C.3       12 UNK        -0.0967 
     18 CA         27.9753    1.8090   -4.2286 C.3       5 UNK         0.0660 
     19 N          26.6160    1.4951   -3.7778 N.am      5 UNK        -0.4015 
     20 C          25.5629    2.3055   -3.6141 C.2       4 UNK         0.4946 
     21 O          25.6056    3.5260   -3.7850 O.2       4 UNK        -0.5353 
     22 CA         24.2277    1.6176   -3.2520 C.3       4 UNK         0.0277 
     23 CB         23.0278    2.5801   -3.3343 C.3       4 UNK        -0.1981 
     24 N          23.9651    0.4534   -4.1098 N.am      4 UNK        -0.4209 
     25 C          24.5341   -0.7507   -3.9655 C.2       3 UNK         0.4942 
     26 O          25.3093   -1.0274   -3.0478 O.2       3 UNK        -0.5208 
     27 CA         24.2982   -1.7595   -5.0957 C.3       3 UNK         0.0250 
     28 CB         25.3994   -1.6095   -6.1589 C.3       3 UNK        -0.1990 
     29 N          24.3149   -3.1290   -4.5832 N.am      3 UNK        -0.4232 
     30 C          23.2592   -3.7311   -4.0169 C.2       2 UNK         0.4993 
     31 O          22.1507   -3.2024   -3.9162 O.2       2 UNK        -0.5286 
     32 CA         23.4423   -5.1678   -3.4915 C.3       2 UNK         0.0209 
     33 CB         22.8364   -6.1804   -4.4778 C.3       2 UNK        -0.1931 
     34 N          24.8397   -5.5270   -3.2419 N.am      2 UNK        -0.4546 
     35 C          25.5651   -5.1006   -2.1983 C.2       1 UNK         0.5154 
     36 O          25.0917   -4.4199   -1.2865 O.2       1 UNK        -0.5181 
     37 C          28.0298    2.3348   -5.6776 C.2       5 UNK         0.5014 
     38 O          28.6625    1.7040   -6.5224 O.2       5 UNK        -0.5248 
     39 N          27.3719    3.4705   -5.9457 N.am      6 UNK        -0.4434 
     40 CA         27.4100    4.2112   -7.2121 C.3       6 UNK         0.0363 
     41 CB         26.6389    5.5303   -7.0479 C.3       6 UNK        -0.1936 
     42 C          26.8817    3.4296   -8.4269 C.2       6 UNK         0.5081 
     43 O          27.3572    3.6515   -9.5402 O.2       6 UNK        -0.5248 
     44 N          25.9292    2.5158   -8.1959 N.am      7 UNK        -0.4718 
     45 CA         25.3766    1.6218   -9.2189 C.3       7 UNK         0.0273 
     46 CB         23.9975    1.1143   -8.7628 C.3       7 UNK        -0.1935 
     47 C          26.3157    0.4578   -9.6000 C.2       7 UNK         0.5018 
     48 O          26.0399   -0.2266  -10.5857 O.2       7 UNK        -0.5186 
     49 N          27.4050    0.2606   -8.8445 N.am      8 UNK        -0.4240 
     50 CA         28.4667   -0.7063   -9.1149 C.3       8 UNK         0.0235 
     51 CB         28.4189   -1.8276   -8.0613 C.3       8 UNK        -0.2000 
     52 C          29.8071    0.0439   -9.1476 C.2       8 UNK         0.4941 
     53 O          30.7288   -0.2838   -8.3988 O.2       8 UNK        -0.5273 
     54 N          29.8873    1.0518  -10.0304 N.am      9 UNK        -0.4262 
     55 CA         30.9966    2.0056  -10.1800 C.3       9 UNK         0.0264 
     56 CB         30.6623    2.9847  -11.3171 C.3       9 UNK        -0.1955 
     57 C          32.3961    1.3944  -10.3935 C.2       9 UNK         0.5031 
     58 O          33.3899    2.0808  -10.1500 O.2       9 UNK        -0.5390 
     59 N          32.4612    0.1160  -10.7930 N.am      10 UNK        -0.4204 
     60 CA         33.6753   -0.7026  -10.8638 C.3       10 UNK         0.0237 
     61 CB         33.3106   -2.0954  -11.4029 C.3       10 UNK        -0.1985 
     62 C          34.4356   -0.8261   -9.5266 C.2       10 UNK         0.4970 
     63 O          35.6465   -1.0509   -9.5561 O.2       10 UNK        -0.4914 
     64 N          33.7401   -0.6526   -8.3922 N.am      11 UNK        -0.4285 
     65 CA         34.3533   -0.5237   -7.0594 C.3       11 UNK         0.1007 
     66 C          35.1461    0.8006   -6.8395 C.2       11 UNK         0.5703 
     67 N          35.0360    1.8096   -7.6974 N.am      11 UNK        -0.7361 
     68 O          35.8896    0.9109   -5.8673 O.2       11 UNK        -0.4986 
     69 C69        33.3220   -0.7321   -5.9204 C.3       12 UNK        -0.0947 
     70 S70        32.5598   -2.3879   -5.9463 S.3       12 UNK        -0.2240 
     71 C71        30.8676   -1.9990   -5.4066 C.3       12 UNK         0.0194 
     72 H72        27.7701   -5.5914   -6.6518 H         1 UNK         0.0906 
     73 H73        29.3306   -5.1235   -5.9732 H         1 UNK         0.0906 
     74 H74        28.6719   -6.7278   -5.6464 H         1 UNK         0.0906 
     75 H75        27.9932   -6.8313   -3.5190 H         1 UNK         0.3140 
     76 H76        27.0592   -6.4410   -1.5669 H         1 UNK         0.1085 
     77 H77        27.5272   -4.2681   -0.4191 H         1 UNK         0.0836 
     78 H78        27.9661   -3.5468   -1.9488 H         1 UNK         0.0836 
     79 H79        29.9896   -3.2387    0.3129 H         1 UNK         0.0731 
     80 H80        31.5063   -3.8581   -0.2938 H         1 UNK         0.0731 
     81 H81        30.7219   -3.7583   -3.3506 H         1 UNK         0.1312 
     82 H82        30.8628    0.4397   -4.1804 H         1 UNK         0.1406 
     83 H83        30.4479   -0.9226   -0.1383 H         1 UNK         0.1631 
     84 H84        31.2901    1.9753   -2.2172 H         1 UNK         0.0717 
     85 H85        31.0329    1.3956   -0.5982 H         1 UNK         0.0717 
     86 H86        28.2923    3.7014   -3.1802 H         1 UNK         0.0934 
     87 H87        29.7702    2.9289   -3.6719 H         1 UNK         0.0934 
     88 H88        28.4764    0.8418   -4.2502 H         1 UNK         0.0739 
     89 H89        26.4517    0.5136   -3.5744 H         1 UNK         0.3093 
     90 H90        24.3136    1.2812   -2.2163 H         1 UNK         0.0818 
     91 H91        22.1009    2.0853   -3.0434 H         1 UNK         0.0819 
     92 H92        23.1615    3.4301   -2.6636 H         1 UNK         0.0819 
     93 H93        22.8959    2.9774   -4.3415 H         1 UNK         0.0819 
     94 H94        23.3655    0.6140   -4.9066 H         1 UNK         0.3041 
     95 H95        23.3312   -1.5572   -5.5618 H         1 UNK         0.0784 
     96 H96        25.2182   -2.2595   -7.0150 H         1 UNK         0.0793 
     97 H97        25.4632   -0.5877   -6.5295 H         1 UNK         0.0793 
     98 H98        26.3818   -1.8516   -5.7544 H         1 UNK         0.0793 
     99 H99        25.2226   -3.5835   -4.5543 H         1 UNK         0.3024 
    100 H100       22.8941   -5.2372   -2.5489 H         1 UNK         0.1171 
    101 H101       23.3478   -6.1620   -5.4411 H         1 UNK         0.0786 
    102 H102       21.7837   -5.9625   -4.6637 H         1 UNK         0.0786 
    103 H103       22.8901   -7.1968   -4.0869 H         1 UNK         0.0786 
    104 H104       25.3062   -6.0820   -3.9450 H         1 UNK         0.2977 
    105 H105       26.7990    3.8563   -5.1971 H         1 UNK         0.3127 
    106 H106       28.4559    4.4499   -7.4162 H         1 UNK         0.0770 
    107 H107       25.5907    5.3563   -6.8007 H         1 UNK         0.0814 
    108 H108       26.6650    6.1161   -7.9679 H         1 UNK         0.0814 
    109 H109       27.0714    6.1477   -6.2604 H         1 UNK         0.0814 
    110 H110       25.5913    2.4053   -7.2513 H         1 UNK         0.2983 
    111 H111       25.2254    2.2029  -10.1317 H         1 UNK         0.0947 
    112 H112       23.5639    0.4399   -9.5027 H         1 UNK         0.0806 
    113 H113       23.2977    1.9406   -8.6360 H         1 UNK         0.0806 
    114 H114       24.0456    0.5734   -7.8201 H         1 UNK         0.0806 
    115 H115       27.5967    0.8990   -8.0779 H         1 UNK         0.3000 
    116 H116       28.3395   -1.1608  -10.0997 H         1 UNK         0.0850 
    117 H117       28.4479   -1.4242   -7.0494 H         1 UNK         0.0810 
    118 H118       27.5082   -2.4179   -8.1578 H         1 UNK         0.0810 
    119 H119       29.2603   -2.5130   -8.1711 H         1 UNK         0.0810 
    120 H120       29.0682    1.2440  -10.5896 H         1 UNK         0.3040 
    121 H121       31.0455    2.5726   -9.2481 H         1 UNK         0.0766 
    122 H122       29.7362    3.5246  -11.1173 H         1 UNK         0.0812 
    123 H123       30.5537    2.4706  -12.2729 H         1 UNK         0.0812 
    124 H124       31.4488    3.7316  -11.4359 H         1 UNK         0.0812 
    125 H125       31.5869   -0.3623  -10.9516 H         1 UNK         0.3205 
    126 H126       34.3499   -0.2225  -11.5756 H         1 UNK         0.0754 
    127 H127       32.8552   -2.0333  -12.3915 H         1 UNK         0.0769 
    128 H128       32.6140   -2.6133  -10.7419 H         1 UNK         0.0769 
    129 H129       34.1983   -2.7228  -11.4967 H         1 UNK         0.0769 
    130 H130       32.7369   -0.4991   -8.4378 H         1 UNK         0.2981 
    131 H131       35.0930   -1.3217   -6.9711 H         1 UNK         0.0541 
    132 H132       34.4383    1.7496   -8.5154 H         1 UNK         0.3459 
    133 H133       35.5653    2.6502   -7.5308 H         1 UNK         0.3459 
    134 H134       32.5441    0.0305   -5.9867 H         1 UNK         0.0612 
    135 H135       33.7893   -0.6102   -4.9414 H         1 UNK         0.0612 
    136 H136       30.2187   -2.8440   -5.6389 H         1 UNK         0.0624 
    137 H137       30.4859   -1.1553   -5.9801 H         1 UNK         0.0624 
@<TRIPOS>BOND
     1    1    2 1    
     2    1   72 1    
     3    1   73 1    
     4    1   74 1    
     5    2    3 2    
     6    2    4 am   BACKBONE|DICT|INTERRES
     7    4    5 1    
     8    4   75 1    
     9    5    6 1    
    10    5   35 1    
    11    5   76 1    
    12    6    7 1    
    13    6   77 1    
    14    6   78 1    
    15    7    8 1    
    16    8    9 1    
    17    8   79 1    
    18    8   80 1    
    19    9   10 ar   
    20    9   14 ar   
    21   10   11 ar   
    22   10   81 1    
    23   11   12 ar   
    24   11   71 1    
    25   12   13 ar   
    26   12   82 1    
    27   13   14 ar   
    28   13   15 1    
    29   14   83 1    
    30   15   16 1    
    31   15   84 1    
    32   15   85 1    
    33   16   17 1    
    34   17   18 1    
    35   17   86 1    
    36   17   87 1    
    37   18   19 1    
    38   18   37 1    
    39   18   88 1    
    40   19   20 am   BACKBONE|DICT|INTERRES
    41   19   89 1    
    42   20   21 2    
    43   20   22 1    
    44   22   23 1    
    45   22   24 1    
    46   22   90 1    
    47   23   91 1    
    48   23   92 1    
    49   23   93 1    
    50   24   25 am   BACKBONE|DICT|INTERRES
    51   24   94 1    
    52   25   26 2    
    53   25   27 1    
    54   27   28 1    
    55   27   29 1    
    56   27   95 1    
    57   28   96 1    
    58   28   97 1    
    59   28   98 1    
    60   29   30 am   BACKBONE|DICT|INTERRES
    61   29   99 1    
    62   30   31 2    
    63   30   32 1    
    64   32   33 1    
    65   32   34 1    
    66   32  100 1    
    67   33  101 1    
    68   33  102 1    
    69   33  103 1    
    70   34   35 am   BACKBONE|DICT|INTERRES
    71   34  104 1    
    72   35   36 2    
    73   37   38 2    
    74   37   39 am   BACKBONE|DICT|INTERRES
    75   39   40 1    
    76   39  105 1    
    77   40   41 1    
    78   40   42 1    
    79   40  106 1    
    80   41  107 1    
    81   41  108 1    
    82   41  109 1    
    83   42   43 2    
    84   42   44 am   BACKBONE|DICT|INTERRES
    85   44   45 1    
    86   44  110 1    
    87   45   46 1    
    88   45   47 1    
    89   45  111 1    
    90   46  112 1    
    91   46  113 1    
    92   46  114 1    
    93   47   48 2    
    94   47   49 am   BACKBONE|DICT|INTERRES
    95   49   50 1    
    96   49  115 1    
    97   50   51 1    
    98   50   52 1    
    99   50  116 1    
   100   51  117 1    
   101   51  118 1    
   102   51  119 1    
   103   52   53 2    
   104   52   54 am   BACKBONE|DICT|INTERRES
   105   54   55 1    
   106   54  120 1    
   107   55   56 1    
   108   55   57 1    
   109   55  121 1    
   110   56  122 1    
   111   56  123 1    
   112   56  124 1    
   113   57   58 2    
   114   57   59 am   BACKBONE|DICT|INTERRES
   115   59   60 1    
   116   59  125 1    
   117   60   61 1    
   118   60   62 1    
   119   60  126 1    
   120   61  127 1    
   121   61  128 1    
   122   61  129 1    
   123   62   63 2    
   124   62   64 am   BACKBONE|DICT|INTERRES
   125   64   65 1    
   126   64  130 1    
   127   65   66 1    
   128   65   69 1    
   129   65  131 1    
   130   66   67 am   BACKBONE|DICT|INTERRES
   131   66   68 2    
   132   67  132 1    
   133   67  133 1    
   134   69   70 1    
   135   69  134 1    
   136   69  135 1    
   137   70   71 1    
   138   71  136 1    
   139   71  137 1    
@<TRIPOS>SUBSTRUCTURE
     1 UNK         1 GROUP             0       ****    0 ROOT    
