@<TRIPOS>MOLECULE
3R137
137   139    1
SMALL
USER_CHARGES


@<TRIPOS>ATOM
      1 CA         24.1459   -5.4438   -4.5278 C.3       0 UNK        -0.2020 
      2 C          24.6054   -4.7708   -3.2439 C.2       0 UNK         0.4855 
      3 O          23.8407   -4.0225   -2.6341 O.2       0 UNK        -0.5197 
      4 N          25.8549   -5.0170   -2.8329 N.am      1 UNK        -0.4892 
      5 CA         26.5038   -4.4149   -1.6636 C.3       1 UNK         0.0835 
      6 C6         27.8708   -5.0706   -1.3221 C.3       12 UNK        -0.0855 
      7 S7         28.8520   -5.6291   -2.7622 S.3       12 UNK        -0.2931 
      8 C8         30.5149   -5.0027   -2.3722 C.3       12 UNK         0.0378 
      9 C9         30.7600   -3.6274   -2.9725 C.ar      12 UNK        -0.0802 
     10 C10        30.9005   -3.4961   -4.3560 C.ar      12 UNK        -0.0944 
     11 C11        31.1892   -2.2555   -4.9261 C.ar      12 UNK        -0.0787 
     12 C12        31.3515   -1.1420   -4.0999 C.ar      12 UNK        -0.0862 
     13 C13        31.1734   -1.2463   -2.7159 C.ar      12 UNK        -0.0733 
     14 C14        30.8820   -2.4970   -2.1579 C.ar      12 UNK        -0.0832 
     15 C15        31.3030   -0.0232   -1.8087 C.3       12 UNK         0.0240 
     16 S16        30.5432    1.5001   -2.4796 S.3       12 UNK        -0.2522 
     17 C17        28.8458    0.9495   -2.8565 C.3       12 UNK        -0.0967 
     18 CA         28.5835    0.9045   -4.3874 C.3       5 UNK         0.0660 
     19 N          27.8092   -0.2736   -4.7756 N.am      5 UNK        -0.4015 
     20 C          27.6060   -0.6895   -6.0336 C.2       4 UNK         0.4946 
     21 O          28.1354   -0.1873   -7.0270 O.2       4 UNK        -0.5353 
     22 CA         26.5946   -1.8338   -6.2121 C.3       4 UNK         0.0277 
     23 CB         27.2772   -3.2038   -6.0634 C.3       4 UNK        -0.1981 
     24 N          25.4791   -1.7231   -5.2654 N.am      4 UNK        -0.4209 
     25 C          24.5426   -0.7627   -5.3168 C.2       3 UNK         0.4942 
     26 O          24.4799    0.0809   -6.2090 O.2       3 UNK        -0.5208 
     27 CA         23.5392   -0.6916   -4.1544 C.3       3 UNK         0.0250 
     28 CB         22.3309   -1.6037   -4.4163 C.3       3 UNK        -0.1990 
     29 N          24.1551   -1.0146   -2.8639 N.am      3 UNK        -0.4232 
     30 C          25.0359   -0.2117   -2.2446 C.2       2 UNK         0.4993 
     31 O          25.3766    0.8852   -2.6830 O.2       2 UNK        -0.5286 
     32 CA         25.6940   -0.7214   -0.9506 C.3       2 UNK         0.0209 
     33 CB         24.8858   -0.2705    0.2760 C.3       2 UNK        -0.1931 
     34 N          25.8716   -2.1743   -0.9127 N.am      2 UNK        -0.4546 
     35 C          26.5829   -2.8813   -1.8016 C.2       1 UNK         0.5154 
     36 O          27.2104   -2.3691   -2.7311 O.2       1 UNK        -0.5181 
     37 C          27.9476    2.2089   -4.9100 C.2       5 UNK         0.5014 
     38 O          28.6401    3.0079   -5.5399 O.2       5 UNK        -0.5248 
     39 N          26.6381    2.3869   -4.6762 N.am      6 UNK        -0.4434 
     40 CA         25.8481    3.5345   -5.1358 C.3       6 UNK         0.0363 
     41 CB         24.4394    3.4715   -4.5253 C.3       6 UNK        -0.1936 
     42 C          25.7666    3.6455   -6.6675 C.2       6 UNK         0.5081 
     43 O          25.8476    4.7537   -7.1978 O.2       6 UNK        -0.5248 
     44 N          25.6393    2.5007   -7.3528 N.am      7 UNK        -0.4718 
     45 CA         25.6873    2.3965   -8.8146 C.3       7 UNK         0.0273 
     46 CB         25.1462    1.0204   -9.2364 C.3       7 UNK        -0.1935 
     47 C          27.0954    2.6101   -9.4016 C.2       7 UNK         0.5018 
     48 O          27.2046    2.8432  -10.6061 O.2       7 UNK        -0.5186 
     49 N          28.1317    2.5073   -8.5547 N.am      8 UNK        -0.4240 
     50 CA         29.5621    2.5505   -8.8685 C.3       8 UNK         0.0235 
     51 CB         29.9838    3.9599   -9.3337 C.3       8 UNK        -0.2000 
     52 C          29.9611    1.4385   -9.8545 C.2       8 UNK         0.4941 
     53 O          30.6021    1.7107  -10.8730 O.2       8 UNK        -0.5273 
     54 N          29.5434    0.2010   -9.5513 N.am      9 UNK        -0.4262 
     55 CA         29.6682   -0.9857  -10.4055 C.3       9 UNK         0.0264 
     56 CB         28.6802   -2.0532   -9.8986 C.3       9 UNK        -0.1955 
     57 C          31.1136   -1.5189  -10.5170 C.2       9 UNK         0.5031 
     58 O          31.3718   -2.6677  -10.1577 O.2       9 UNK        -0.5390 
     59 N          32.0230   -0.6662  -11.0111 N.am      10 UNK        -0.4204 
     60 CA         33.4761   -0.8560  -11.1469 C.3       10 UNK         0.0237 
     61 CB         33.8093   -2.0429  -12.0767 C.3       10 UNK        -0.1985 
     62 C          34.2157   -0.9259   -9.7936 C.2       10 UNK         0.4970 
     63 O          35.3131   -1.4816   -9.7201 O.2       10 UNK        -0.4914 
     64 N          33.6134   -0.3356   -8.7580 N.am      11 UNK        -0.4285 
     65 CA         34.0966   -0.2562   -7.3764 C.3       11 UNK         0.1007 
     66 C          33.3437    0.8627   -6.6118 C.2       11 UNK         0.5703 
     67 N          33.8382    1.2658   -5.4496 N.am      11 UNK        -0.7361 
     68 O          32.3143    1.3659   -7.0575 O.2       11 UNK        -0.4986 
     69 C69        34.1116   -1.6223   -6.6151 C.3       12 UNK        -0.0947 
     70 S70        32.8331   -2.8454   -7.0785 S.3       12 UNK        -0.2240 
     71 C71        31.2952   -2.1220   -6.4354 C.3       12 UNK         0.0194 
     72 H72        24.8916   -6.1399   -4.9117 H         1 UNK         0.0906 
     73 H73        23.2247   -5.9983   -4.3512 H         1 UNK         0.0906 
     74 H74        23.9522   -4.6962   -5.2964 H         1 UNK         0.0906 
     75 H75        26.4621   -5.6107   -3.3820 H         1 UNK         0.3140 
     76 H76        25.8455   -4.6234   -0.8169 H         1 UNK         0.1085 
     77 H77        28.4704   -4.4135   -0.6890 H         1 UNK         0.0836 
     78 H78        27.6897   -5.9585   -0.7142 H         1 UNK         0.0836 
     79 H79        31.2491   -5.6974   -2.7829 H         1 UNK         0.0731 
     80 H80        30.6773   -5.0015   -1.2933 H         1 UNK         0.0731 
     81 H81        30.7893   -4.3644   -4.9912 H         1 UNK         0.1312 
     82 H82        31.5881   -0.1837   -4.5377 H         1 UNK         0.1406 
     83 H83        30.7617   -2.5940   -1.0876 H         1 UNK         0.1631 
     84 H84        32.3617    0.1656   -1.6274 H         1 UNK         0.0717 
     85 H85        30.8536   -0.2239   -0.8349 H         1 UNK         0.0717 
     86 H86        28.7023   -0.0369   -2.4130 H         1 UNK         0.0934 
     87 H87        28.1383    1.5974   -2.3348 H         1 UNK         0.0934 
     88 H88        29.5363    0.8057   -4.9098 H         1 UNK         0.0739 
     89 H89        27.4024   -0.8207   -4.0241 H         1 UNK         0.3093 
     90 H90        26.1892   -1.7638   -7.2237 H         1 UNK         0.0818 
     91 H91        27.7458   -3.3270   -5.0864 H         1 UNK         0.0819 
     92 H92        26.5675   -4.0194   -6.2005 H         1 UNK         0.0819 
     93 H93        28.0602   -3.3301   -6.8109 H         1 UNK         0.0819 
     94 H94        25.5024   -2.3344   -4.4617 H         1 UNK         0.3041 
     95 H95        23.1711    0.3351   -4.0995 H         1 UNK         0.0784 
     96 H96        21.8123   -1.3047   -5.3283 H         1 UNK         0.0793 
     97 H97        22.6230   -2.6460   -4.5395 H         1 UNK         0.0793 
     98 H98        21.6089   -1.5513   -3.6013 H         1 UNK         0.0793 
     99 H99        23.9529   -1.9298   -2.4737 H         1 UNK         0.3024 
    100 H100       26.6854   -0.2672   -0.8923 H         1 UNK         0.1171 
    101 H101       24.7590    0.8132    0.2821 H         1 UNK         0.0786 
    102 H102       25.3889   -0.5403    1.2049 H         1 UNK         0.0786 
    103 H103       23.8899   -0.7151    0.2903 H         1 UNK         0.0786 
    104 H104       25.3563   -2.6694   -0.1986 H         1 UNK         0.2977 
    105 H105       26.1510    1.7147   -4.0838 H         1 UNK         0.3127 
    106 H106       26.3388    4.4374   -4.7664 H         1 UNK         0.0770 
    107 H107       23.9032    2.5770   -4.8437 H         1 UNK         0.0814 
    108 H108       23.8439    4.3341   -4.8270 H         1 UNK         0.0814 
    109 H109       24.4780    3.4690   -3.4359 H         1 UNK         0.0814 
    110 H110       25.4887    1.6349   -6.8408 H         1 UNK         0.2983 
    111 H111       25.0376    3.1669   -9.2355 H         1 UNK         0.0947 
    112 H112       25.1380    0.9170  -10.3223 H         1 UNK         0.0806 
    113 H113       24.1234    0.8725   -8.8895 H         1 UNK         0.0806 
    114 H114       25.7567    0.2102   -8.8355 H         1 UNK         0.0806 
    115 H115       27.9179    2.3074   -7.5853 H         1 UNK         0.3000 
    116 H116       30.0804    2.3408   -7.9326 H         1 UNK         0.0850 
    117 H117       31.0652    4.0178   -9.4627 H         1 UNK         0.0810 
    118 H118       29.7033    4.7169   -8.6013 H         1 UNK         0.0810 
    119 H119       29.5271    4.2278  -10.2869 H         1 UNK         0.0810 
    120 H120       29.0413    0.0713   -8.6737 H         1 UNK         0.3040 
    121 H121       29.3575   -0.7056  -11.4143 H         1 UNK         0.0766 
    122 H122       27.6574   -1.6758   -9.8874 H         1 UNK         0.0812 
    123 H123       28.9277   -2.3771   -8.8877 H         1 UNK         0.0812 
    124 H124       28.6931   -2.9365  -10.5384 H         1 UNK         0.0812 
    125 H125       31.6769    0.2698  -11.2243 H         1 UNK         0.3205 
    126 H126       33.8444    0.0479  -11.6341 H         1 UNK         0.0754 
    127 H127       34.8743   -2.0692  -12.3106 H         1 UNK         0.0769 
    128 H128       33.2733   -1.9691  -13.0229 H         1 UNK         0.0769 
    129 H129       33.5560   -2.9999  -11.6199 H         1 UNK         0.0769 
    130 H130       32.7276    0.1289   -8.9029 H         1 UNK         0.2981 
    131 H131       35.1273    0.0979   -7.4392 H         1 UNK         0.0541 
    132 H132       34.6849    0.8690   -5.0738 H         1 UNK         0.3459 
    133 H133       33.3609    1.9961   -4.9454 H         1 UNK         0.3459 
    134 H134       35.0677   -2.1079   -6.8146 H         1 UNK         0.0612 
    135 H135       34.0890   -1.4875   -5.5324 H         1 UNK         0.0612 
    136 H136       30.4563   -2.6455   -6.8948 H         1 UNK         0.0624 
    137 H137       31.2006   -1.0838   -6.7520 H         1 UNK         0.0624 
@<TRIPOS>BOND
     1    1    2 1    
     2    1   72 1    
     3    1   73 1    
     4    1   74 1    
     5    2    3 2    
     6    2    4 am   BACKBONE|DICT|INTERRES
     7    4    5 1    
     8    4   75 1    
     9    5    6 1    
    10    5   35 1    
    11    5   76 1    
    12    6    7 1    
    13    6   77 1    
    14    6   78 1    
    15    7    8 1    
    16    8    9 1    
    17    8   79 1    
    18    8   80 1    
    19    9   10 ar   
    20    9   14 ar   
    21   10   11 ar   
    22   10   81 1    
    23   11   12 ar   
    24   11   71 1    
    25   12   13 ar   
    26   12   82 1    
    27   13   14 ar   
    28   13   15 1    
    29   14   83 1    
    30   15   16 1    
    31   15   84 1    
    32   15   85 1    
    33   16   17 1    
    34   17   18 1    
    35   17   86 1    
    36   17   87 1    
    37   18   19 1    
    38   18   37 1    
    39   18   88 1    
    40   19   20 am   BACKBONE|DICT|INTERRES
    41   19   89 1    
    42   20   21 2    
    43   20   22 1    
    44   22   23 1    
    45   22   24 1    
    46   22   90 1    
    47   23   91 1    
    48   23   92 1    
    49   23   93 1    
    50   24   25 am   BACKBONE|DICT|INTERRES
    51   24   94 1    
    52   25   26 2    
    53   25   27 1    
    54   27   28 1    
    55   27   29 1    
    56   27   95 1    
    57   28   96 1    
    58   28   97 1    
    59   28   98 1    
    60   29   30 am   BACKBONE|DICT|INTERRES
    61   29   99 1    
    62   30   31 2    
    63   30   32 1    
    64   32   33 1    
    65   32   34 1    
    66   32  100 1    
    67   33  101 1    
    68   33  102 1    
    69   33  103 1    
    70   34   35 am   BACKBONE|DICT|INTERRES
    71   34  104 1    
    72   35   36 2    
    73   37   38 2    
    74   37   39 am   BACKBONE|DICT|INTERRES
    75   39   40 1    
    76   39  105 1    
    77   40   41 1    
    78   40   42 1    
    79   40  106 1    
    80   41  107 1    
    81   41  108 1    
    82   41  109 1    
    83   42   43 2    
    84   42   44 am   BACKBONE|DICT|INTERRES
    85   44   45 1    
    86   44  110 1    
    87   45   46 1    
    88   45   47 1    
    89   45  111 1    
    90   46  112 1    
    91   46  113 1    
    92   46  114 1    
    93   47   48 2    
    94   47   49 am   BACKBONE|DICT|INTERRES
    95   49   50 1    
    96   49  115 1    
    97   50   51 1    
    98   50   52 1    
    99   50  116 1    
   100   51  117 1    
   101   51  118 1    
   102   51  119 1    
   103   52   53 2    
   104   52   54 am   BACKBONE|DICT|INTERRES
   105   54   55 1    
   106   54  120 1    
   107   55   56 1    
   108   55   57 1    
   109   55  121 1    
   110   56  122 1    
   111   56  123 1    
   112   56  124 1    
   113   57   58 2    
   114   57   59 am   BACKBONE|DICT|INTERRES
   115   59   60 1    
   116   59  125 1    
   117   60   61 1    
   118   60   62 1    
   119   60  126 1    
   120   61  127 1    
   121   61  128 1    
   122   61  129 1    
   123   62   63 2    
   124   62   64 am   BACKBONE|DICT|INTERRES
   125   64   65 1    
   126   64  130 1    
   127   65   66 1    
   128   65   69 1    
   129   65  131 1    
   130   66   67 am   BACKBONE|DICT|INTERRES
   131   66   68 2    
   132   67  132 1    
   133   67  133 1    
   134   69   70 1    
   135   69  134 1    
   136   69  135 1    
   137   70   71 1    
   138   71  136 1    
   139   71  137 1    
@<TRIPOS>SUBSTRUCTURE
     1 UNK         1 GROUP             0       ****    0 ROOT    
