@<TRIPOS>MOLECULE
3R137
137   139    1
SMALL
USER_CHARGES


@<TRIPOS>ATOM
      1 CA         28.4815    1.1281   -0.9393 C.3       0 UNK        -0.2020 
      2 C          28.2076   -0.3190   -1.3169 C.2       0 UNK         0.4855 
      3 O          27.7289   -0.5844   -2.4188 O.2       0 UNK        -0.5197 
      4 N          28.4970   -1.2640   -0.4139 N.am      1 UNK        -0.4892 
      5 CA         28.2958   -2.6989   -0.6305 C.3       1 UNK         0.0835 
      6 C6         28.9846   -3.5388    0.4740 C.3       12 UNK        -0.0855 
      7 S7         29.2319   -5.2795   -0.0146 S.3       12 UNK        -0.2931 
      8 C8         30.9181   -5.2356   -0.7110 C.3       12 UNK         0.0378 
      9 C9         30.9896   -4.3919   -1.9771 C.ar      12 UNK        -0.0802 
     10 C10        31.7705   -3.2297   -2.0157 C.ar      12 UNK        -0.0944 
     11 C11        31.8203   -2.4434   -3.1725 C.ar      12 UNK        -0.0787 
     12 C12        31.0821   -2.8362   -4.2933 C.ar      12 UNK        -0.0862 
     13 C13        30.2804   -3.9773   -4.2580 C.ar      12 UNK        -0.0733 
     14 C14        30.2510   -4.7644   -3.1054 C.ar      12 UNK        -0.0832 
     15 C15        29.4304   -4.3267   -5.4641 C.3       12 UNK         0.0240 
     16 S16        27.9234   -3.3055   -5.4827 S.3       12 UNK        -0.2522 
     17 C17        27.5904   -3.2061   -7.2747 C.3       12 UNK        -0.0967 
     18 CA         26.9461   -1.8748   -7.7291 C.3       5 UNK         0.0660 
     19 N          25.6252   -1.6683   -7.1368 N.am      5 UNK        -0.4015 
     20 C          24.6872   -0.8669   -7.6590 C.2       4 UNK         0.4946 
     21 O          24.8251   -0.2535   -8.7171 O.2       4 UNK        -0.5353 
     22 CA         23.3934   -0.6936   -6.8458 C.3       4 UNK         0.0277 
     23 CB         22.3927   -1.8128   -7.1733 C.3       4 UNK        -0.1981 
     24 N          23.6276   -0.6532   -5.3997 N.am      4 UNK        -0.4209 
     25 C          24.3529    0.2766   -4.7663 C.2       3 UNK         0.4942 
     26 O          24.8951    1.2209   -5.3397 O.2       3 UNK        -0.5208 
     27 CA         24.5525    0.1062   -3.2534 C.3       3 UNK         0.0250 
     28 CB         23.3202    0.5807   -2.4594 C.3       3 UNK        -0.1990 
     29 N          24.9847   -1.2426   -2.8593 N.am      3 UNK        -0.4232 
     30 C          24.2934   -2.3940   -2.8682 C.2       2 UNK         0.4993 
     31 O          23.1318   -2.4805   -3.2693 O.2       2 UNK        -0.5286 
     32 CA         25.0098   -3.6753   -2.3929 C.3       2 UNK         0.0209 
     33 CB         24.9678   -4.7637   -3.4801 C.3       2 UNK        -0.1931 
     34 N          26.4042   -3.4481   -2.0007 N.am      2 UNK        -0.4546 
     35 C          26.7957   -3.0241   -0.7909 C.2       1 UNK         0.5154 
     36 O          26.0267   -2.8406    0.1555 O.2       1 UNK        -0.5181 
     37 C          27.8635   -0.6450   -7.5449 C.2       5 UNK         0.5014 
     38 O          28.6195   -0.3205   -8.4605 O.2       5 UNK        -0.5248 
     39 N          27.7563    0.0589   -6.4069 N.am      6 UNK        -0.4434 
     40 CA         28.4568    1.3243   -6.1638 C.3       6 UNK         0.0363 
     41 CB         28.3791    1.7105   -4.6818 C.3       6 UNK        -0.1936 
     42 C          27.9370    2.4603   -7.0572 C.2       6 UNK         0.5081 
     43 O          28.7420    3.2453   -7.5552 O.2       6 UNK        -0.5248 
     44 N          26.6206    2.4920   -7.3118 N.am      7 UNK        -0.4718 
     45 CA         25.9880    3.3818   -8.2934 C.3       7 UNK         0.0273 
     46 CB         24.4596    3.2810   -8.1720 C.3       7 UNK        -0.1935 
     47 C          26.4462    3.1074   -9.7401 C.2       7 UNK         0.5018 
     48 O          26.5254    4.0432  -10.5360 O.2       7 UNK        -0.5186 
     49 N          26.7889    1.8456  -10.0368 N.am      8 UNK        -0.4240 
     50 CA         27.4274    1.4062  -11.2815 C.3       8 UNK         0.0235 
     51 CB         27.0361   -0.0571  -11.5532 C.3       8 UNK        -0.2000 
     52 C          28.9632    1.5801  -11.2772 C.2       8 UNK         0.4941 
     53 O          29.6055    1.1837  -12.2506 O.2       8 UNK        -0.5273 
     54 N          29.5247    2.1630  -10.2058 N.am      9 UNK        -0.4262 
     55 CA         30.9401    2.4743   -9.9800 C.3       9 UNK         0.0264 
     56 CB         31.4716    3.4637  -11.0401 C.3       9 UNK        -0.1955 
     57 C          31.8483    1.2426   -9.7991 C.2       9 UNK         0.5031 
     58 O          33.0492    1.3408  -10.0621 O.2       9 UNK        -0.5390 
     59 N          31.3016    0.1203   -9.3025 N.am      10 UNK        -0.4204 
     60 CA         32.0556   -1.1128   -9.0279 C.3       10 UNK         0.0237 
     61 CB         31.0909   -2.2442   -8.6422 C.3       10 UNK        -0.1985 
     62 C          33.1429   -0.9588   -7.9480 C.2       10 UNK         0.4970 
     63 O          34.1230   -1.7039   -7.9784 O.2       10 UNK        -0.4914 
     64 N          32.9641    0.0033   -7.0325 N.am      11 UNK        -0.4285 
     65 CA         33.9608    0.3841   -6.0192 C.3       11 UNK         0.1007 
     66 C          35.1551    1.2148   -6.5782 C.2       11 UNK         0.5703 
     67 N          35.1509    1.6452   -7.8360 N.am      11 UNK        -0.7361 
     68 O          36.1148    1.4674   -5.8536 O.2       11 UNK        -0.4986 
     69 C69        33.3221    1.0844   -4.7850 C.3       12 UNK        -0.0947 
     70 S70        31.8886    0.2030   -4.0810 S.3       12 UNK        -0.2240 
     71 C71        32.6937   -1.1924   -3.2194 C.3       12 UNK         0.0194 
     72 H72        29.2778    1.5315   -1.5643 H         1 UNK         0.0906 
     73 H73        28.7824    1.2281    0.1033 H         1 UNK         0.0906 
     74 H74        27.5874    1.7314   -1.0944 H         1 UNK         0.0906 
     75 H75        28.8528   -0.9969    0.4929 H         1 UNK         0.3140 
     76 H76        28.7857   -2.9207   -1.5792 H         1 UNK         0.1085 
     77 H77        28.4125   -3.5088    1.4035 H         1 UNK         0.0836 
     78 H78        29.9606   -3.1142    0.7153 H         1 UNK         0.0836 
     79 H79        31.6132   -4.8697    0.0463 H         1 UNK         0.0731 
     80 H80        31.2298   -6.2543   -0.9458 H         1 UNK         0.0731 
     81 H81        32.3400   -2.9364   -1.1443 H         1 UNK         0.1312 
     82 H82        31.1089   -2.2388   -5.1941 H         1 UNK         0.1406 
     83 H83        29.6317   -5.6509   -3.0725 H         1 UNK         0.1631 
     84 H84        29.1526   -5.3817   -5.4569 H         1 UNK         0.0717 
     85 H85        30.0196   -4.1681   -6.3679 H         1 UNK         0.0717 
     86 H86        28.5083   -3.3743   -7.8386 H         1 UNK         0.0934 
     87 H87        26.9362   -4.0384   -7.5396 H         1 UNK         0.0934 
     88 H88        26.7938   -1.9704   -8.8065 H         1 UNK         0.0739 
     89 H89        25.4405   -2.1407   -6.2647 H         1 UNK         0.3093 
     90 H90        22.9491    0.2608   -7.1362 H         1 UNK         0.0818 
     91 H91        21.4382   -1.6493   -6.6726 H         1 UNK         0.0819 
     92 H92        22.1918   -1.8554   -8.2449 H         1 UNK         0.0819 
     93 H93        22.7659   -2.7922   -6.8710 H         1 UNK         0.0819 
     94 H94        23.2269   -1.3957   -4.8307 H         1 UNK         0.3041 
     95 H95        25.3794    0.7627   -2.9780 H         1 UNK         0.0784 
     96 H96        23.0914    1.6225   -2.6876 H         1 UNK         0.0793 
     97 H97        22.4288   -0.0024   -2.6920 H         1 UNK         0.0793 
     98 H98        23.4932    0.5147   -1.3853 H         1 UNK         0.0793 
     99 H99        25.9632   -1.2848   -2.5819 H         1 UNK         0.3024 
    100 H100       24.4539   -4.0434   -1.5274 H         1 UNK         0.1171 
    101 H101       23.9393   -5.0366   -3.7201 H         1 UNK         0.0786 
    102 H102       25.4724   -5.6729   -3.1527 H         1 UNK         0.0786 
    103 H103       25.4376   -4.4333   -4.4060 H         1 UNK         0.0786 
    104 H104       27.0952   -3.5327   -2.7344 H         1 UNK         0.2977 
    105 H105       27.1199   -0.2562   -5.6899 H         1 UNK         0.3127 
    106 H106       29.5106    1.1750   -6.4094 H         1 UNK         0.0770 
    107 H107       27.3516    1.7676   -4.3233 H         1 UNK         0.0814 
    108 H108       28.8444    2.6809   -4.5038 H         1 UNK         0.0814 
    109 H109       28.9138    0.9859   -4.0705 H         1 UNK         0.0814 
    110 H110       26.0096    1.8641   -6.7951 H         1 UNK         0.2983 
    111 H111       26.2818    4.4048   -8.0480 H         1 UNK         0.0947 
    112 H112       23.9683    3.9792   -8.8509 H         1 UNK         0.0806 
    113 H113       24.1251    3.5194   -7.1621 H         1 UNK         0.0806 
    114 H114       24.0988    2.2821   -8.4158 H         1 UNK         0.0806 
    115 H115       26.6486    1.1357   -9.3290 H         1 UNK         0.3000 
    116 H116       27.0417    2.0131  -12.1034 H         1 UNK         0.0850 
    117 H117       27.3880   -0.3801  -12.5337 H         1 UNK         0.0810 
    118 H118       25.9540   -0.1898  -11.5378 H         1 UNK         0.0810 
    119 H119       27.4673   -0.7343  -10.8167 H         1 UNK         0.0810 
    120 H120       28.9148    2.4361   -9.4429 H         1 UNK         0.3040 
    121 H121       30.9733    2.9932   -9.0214 H         1 UNK         0.0766 
    122 H122       31.5544    2.9994  -12.0230 H         1 UNK         0.0812 
    123 H123       30.8217    4.3338  -11.1321 H         1 UNK         0.0812 
    124 H124       32.4632    3.8301  -10.7718 H         1 UNK         0.0812 
    125 H125       30.3026    0.0970   -9.0982 H         1 UNK         0.3205 
    126 H126       32.5576   -1.3978   -9.9548 H         1 UNK         0.0754 
    127 H127       30.3271   -2.3936   -9.4056 H         1 UNK         0.0769 
    128 H128       30.5909   -2.0345   -7.6964 H         1 UNK         0.0769 
    129 H129       31.6230   -3.1892   -8.5255 H         1 UNK         0.0769 
    130 H130       32.1291    0.5663   -7.0719 H         1 UNK         0.2981 
    131 H131       34.4128   -0.5413   -5.6603 H         1 UNK         0.0541 
    132 H132       34.3841    1.4375   -8.4649 H         1 UNK         0.3459 
    133 H133       35.9385    2.1762   -8.1715 H         1 UNK         0.3459 
    134 H134       32.9850    2.0863   -5.0568 H         1 UNK         0.0612 
    135 H135       34.0618    1.2177   -3.9934 H         1 UNK         0.0612 
    136 H136       33.6267   -1.4547   -3.7168 H         1 UNK         0.0624 
    137 H137       32.9584   -0.8672   -2.2123 H         1 UNK         0.0624 
@<TRIPOS>BOND
     1    1    2 1    
     2    1   72 1    
     3    1   73 1    
     4    1   74 1    
     5    2    3 2    
     6    2    4 am   BACKBONE|DICT|INTERRES
     7    4    5 1    
     8    4   75 1    
     9    5    6 1    
    10    5   35 1    
    11    5   76 1    
    12    6    7 1    
    13    6   77 1    
    14    6   78 1    
    15    7    8 1    
    16    8    9 1    
    17    8   79 1    
    18    8   80 1    
    19    9   10 ar   
    20    9   14 ar   
    21   10   11 ar   
    22   10   81 1    
    23   11   12 ar   
    24   11   71 1    
    25   12   13 ar   
    26   12   82 1    
    27   13   14 ar   
    28   13   15 1    
    29   14   83 1    
    30   15   16 1    
    31   15   84 1    
    32   15   85 1    
    33   16   17 1    
    34   17   18 1    
    35   17   86 1    
    36   17   87 1    
    37   18   19 1    
    38   18   37 1    
    39   18   88 1    
    40   19   20 am   BACKBONE|DICT|INTERRES
    41   19   89 1    
    42   20   21 2    
    43   20   22 1    
    44   22   23 1    
    45   22   24 1    
    46   22   90 1    
    47   23   91 1    
    48   23   92 1    
    49   23   93 1    
    50   24   25 am   BACKBONE|DICT|INTERRES
    51   24   94 1    
    52   25   26 2    
    53   25   27 1    
    54   27   28 1    
    55   27   29 1    
    56   27   95 1    
    57   28   96 1    
    58   28   97 1    
    59   28   98 1    
    60   29   30 am   BACKBONE|DICT|INTERRES
    61   29   99 1    
    62   30   31 2    
    63   30   32 1    
    64   32   33 1    
    65   32   34 1    
    66   32  100 1    
    67   33  101 1    
    68   33  102 1    
    69   33  103 1    
    70   34   35 am   BACKBONE|DICT|INTERRES
    71   34  104 1    
    72   35   36 2    
    73   37   38 2    
    74   37   39 am   BACKBONE|DICT|INTERRES
    75   39   40 1    
    76   39  105 1    
    77   40   41 1    
    78   40   42 1    
    79   40  106 1    
    80   41  107 1    
    81   41  108 1    
    82   41  109 1    
    83   42   43 2    
    84   42   44 am   BACKBONE|DICT|INTERRES
    85   44   45 1    
    86   44  110 1    
    87   45   46 1    
    88   45   47 1    
    89   45  111 1    
    90   46  112 1    
    91   46  113 1    
    92   46  114 1    
    93   47   48 2    
    94   47   49 am   BACKBONE|DICT|INTERRES
    95   49   50 1    
    96   49  115 1    
    97   50   51 1    
    98   50   52 1    
    99   50  116 1    
   100   51  117 1    
   101   51  118 1    
   102   51  119 1    
   103   52   53 2    
   104   52   54 am   BACKBONE|DICT|INTERRES
   105   54   55 1    
   106   54  120 1    
   107   55   56 1    
   108   55   57 1    
   109   55  121 1    
   110   56  122 1    
   111   56  123 1    
   112   56  124 1    
   113   57   58 2    
   114   57   59 am   BACKBONE|DICT|INTERRES
   115   59   60 1    
   116   59  125 1    
   117   60   61 1    
   118   60   62 1    
   119   60  126 1    
   120   61  127 1    
   121   61  128 1    
   122   61  129 1    
   123   62   63 2    
   124   62   64 am   BACKBONE|DICT|INTERRES
   125   64   65 1    
   126   64  130 1    
   127   65   66 1    
   128   65   69 1    
   129   65  131 1    
   130   66   67 am   BACKBONE|DICT|INTERRES
   131   66   68 2    
   132   67  132 1    
   133   67  133 1    
   134   69   70 1    
   135   69  134 1    
   136   69  135 1    
   137   70   71 1    
   138   71  136 1    
   139   71  137 1    
@<TRIPOS>SUBSTRUCTURE
     1 UNK         1 GROUP             0       ****    0 ROOT    
