@<TRIPOS>MOLECULE
3R137
137   139    1
SMALL
USER_CHARGES


@<TRIPOS>ATOM
      1 CA         27.9387   -6.0727   -6.2871 C.3       0 UNK        -0.2020 
      2 C          27.4816   -5.4626   -4.9716 C.2       0 UNK         0.4855 
      3 O          26.2887   -5.2182   -4.7893 O.2       0 UNK        -0.5197 
      4 N          28.4238   -5.2134   -4.0531 N.am      1 UNK        -0.4892 
      5 CA         28.1754   -4.6436   -2.7242 C.3       1 UNK         0.0835 
      6 C6         29.4572   -4.6864   -1.8568 C.3       12 UNK        -0.0855 
      7 S7         29.1772   -4.2115   -0.1088 S.3       12 UNK        -0.2931 
      8 C8         30.7403   -3.3972    0.3661 C.3       12 UNK         0.0378 
      9 C9         31.0843   -2.2187   -0.5344 C.ar      12 UNK        -0.0802 
     10 C10        32.0489   -2.3713   -1.5310 C.ar      12 UNK        -0.0944 
     11 C11        32.3254   -1.3346   -2.4265 C.ar      12 UNK        -0.0787 
     12 C12        31.6833   -0.1033   -2.2580 C.ar      12 UNK        -0.0862 
     13 C13        30.7378    0.0799   -1.2403 C.ar      12 UNK        -0.0733 
     14 C14        30.4367   -0.9889   -0.3879 C.ar      12 UNK        -0.0832 
     15 C15        30.0468    1.4271   -1.0311 C.3       12 UNK         0.0240 
     16 S16        29.5375    2.2644   -2.5717 S.3       12 UNK        -0.2522 
     17 C17        28.3019    1.1000   -3.2294 C.3       12 UNK        -0.0967 
     18 CA         28.1105    1.2577   -4.7594 C.3       5 UNK         0.0660 
     19 N          27.7700   -0.0150   -5.3974 N.am      5 UNK        -0.4015 
     20 C          27.6638   -0.2122   -6.7189 C.2       4 UNK         0.4946 
     21 O          27.9008    0.6446   -7.5708 O.2       4 UNK        -0.5353 
     22 CA         27.1675   -1.5949   -7.1647 C.3       4 UNK         0.0277 
     23 CB         28.3321   -2.5940   -7.2214 C.3       4 UNK        -0.1981 
     24 N          26.0974   -2.1032   -6.3006 N.am      4 UNK        -0.4209 
     25 C          24.8793   -1.5464   -6.2152 C.2       3 UNK         0.4942 
     26 O          24.5087   -0.5986   -6.9070 O.2       3 UNK        -0.5208 
     27 CA         23.9369   -2.0986   -5.1346 C.3       3 UNK         0.0250 
     28 CB         23.2781   -3.4093   -5.5921 C.3       3 UNK        -0.1990 
     29 N          24.6188   -2.2965   -3.8531 N.am      3 UNK        -0.4232 
     30 C          25.1085   -1.2979   -3.1026 C.2       2 UNK         0.4993 
     31 O          25.0004   -0.1089   -3.3946 O.2       2 UNK        -0.5286 
     32 CA         25.8866   -1.6747   -1.8326 C.3       2 UNK         0.0209 
     33 CB         24.9492   -1.7063   -0.6161 C.3       2 UNK        -0.1931 
     34 N          26.6009   -2.9479   -1.9308 N.am      2 UNK        -0.4546 
     35 C          27.5675   -3.2254   -2.8166 C.2       1 UNK         0.5154 
     36 O          27.9588   -2.4301   -3.6770 O.2       1 UNK        -0.5181 
     37 C          27.0947    2.3683   -5.1069 C.2       5 UNK         0.5014 
     38 O          27.4989    3.4374   -5.5655 O.2       5 UNK        -0.5248 
     39 N          25.7954    2.0805   -4.9330 N.am      6 UNK        -0.4434 
     40 CA         24.6798    2.9732   -5.2645 C.3       6 UNK         0.0363 
     41 CB         23.3653    2.3653   -4.7511 C.3       6 UNK        -0.1936 
     42 C          24.5730    3.2902   -6.7656 C.2       6 UNK         0.5081 
     43 O          24.2389    4.4205   -7.1211 O.2       6 UNK        -0.5248 
     44 N          24.8845    2.3049   -7.6188 N.am      7 UNK        -0.4718 
     45 CA         24.9665    2.4587   -9.0748 C.3       7 UNK         0.0273 
     46 CB         24.9338    1.0659   -9.7258 C.3       7 UNK        -0.1935 
     47 C          26.2087    3.2392   -9.5490 C.2       7 UNK         0.5018 
     48 O          26.2646    3.5995  -10.7256 O.2       7 UNK        -0.5186 
     49 N          27.1783    3.4649   -8.6482 N.am      8 UNK        -0.4240 
     50 CA         28.4945    4.0707   -8.8783 C.3       8 UNK         0.0235 
     51 CB         28.3632    5.5533   -9.2883 C.3       8 UNK        -0.2000 
     52 C          29.3673    3.2451   -9.8443 C.2       8 UNK         0.4941 
     53 O          30.1264    3.8150  -10.6317 O.2       8 UNK        -0.5273 
     54 N          29.2451    1.9142   -9.7640 N.am      9 UNK        -0.4262 
     55 CA         30.0594    0.9545  -10.5050 C.3       9 UNK         0.0264 
     56 CB         29.2483   -0.3401  -10.6838 C.3       9 UNK        -0.1955 
     57 C          31.3696    0.6774   -9.7530 C.2       9 UNK         0.5031 
     58 O          31.4677    0.9521   -8.5532 O.2       9 UNK        -0.5390 
     59 N          32.3455    0.0831  -10.4520 N.am      10 UNK        -0.4204 
     60 CA         33.6590   -0.3096   -9.9230 C.3       10 UNK         0.0237 
     61 CB         34.6374   -0.4834  -11.1005 C.3       10 UNK        -0.1985 
     62 C          33.5951   -1.5576   -9.0135 C.2       10 UNK         0.4970 
     63 O          34.3234   -2.5256   -9.2380 O.2       10 UNK        -0.4914 
     64 N          32.7080   -1.5109   -8.0133 N.am      11 UNK        -0.4285 
     65 CA         32.4239   -2.5590   -7.0221 C.3       11 UNK         0.1007 
     66 C          31.7730   -3.8603   -7.5903 C.2       11 UNK         0.5703 
     67 N          31.3062   -3.8795   -8.8336 N.am      11 UNK        -0.7361 
     68 O          31.6482   -4.8585   -6.8863 O.2       11 UNK        -0.4986 
     69 C69        33.6415   -2.8206   -6.0878 C.3       12 UNK        -0.0947 
     70 S70        33.1205   -3.1716   -4.3793 S.3       12 UNK        -0.2240 
     71 C71        33.3020   -1.5371   -3.5820 C.3       12 UNK         0.0194 
     72 H72        27.2839   -5.7592   -7.1005 H         1 UNK         0.0906 
     73 H73        28.9572   -5.7710   -6.5363 H         1 UNK         0.0906 
     74 H74        27.9056   -7.1608   -6.2265 H         1 UNK         0.0906 
     75 H75        29.3911   -5.3985   -4.2780 H         1 UNK         0.3140 
     76 H76        27.4346   -5.2920   -2.2509 H         1 UNK         0.1085 
     77 H77        29.8690   -5.6969   -1.8546 H         1 UNK         0.0836 
     78 H78        30.2185   -4.0586   -2.3154 H         1 UNK         0.0836 
     79 H79        31.5423   -4.1370    0.3550 H         1 UNK         0.0731 
     80 H80        30.6602   -3.0537    1.3982 H         1 UNK         0.0731 
     81 H81        32.5517   -3.3223   -1.6389 H         1 UNK         0.1312 
     82 H82        31.9120    0.7133   -2.9287 H         1 UNK         0.1406 
     83 H83        29.6967   -0.8689    0.3916 H         1 UNK         0.1631 
     84 H84        30.7302    2.0834   -0.4909 H         1 UNK         0.0717 
     85 H85        29.1658    1.3124   -0.3978 H         1 UNK         0.0717 
     86 H86        28.6512    0.0915   -3.0042 H         1 UNK         0.0934 
     87 H87        27.3651    1.2191   -2.6821 H         1 UNK         0.0934 
     88 H88        29.0673    1.5505   -5.1980 H         1 UNK         0.0739 
     89 H89        27.6202   -0.8086   -4.7814 H         1 UNK         0.3093 
     90 H90        26.7645   -1.4880   -8.1738 H         1 UNK         0.0818 
     91 H91        28.0298   -3.5233   -7.7015 H         1 UNK         0.0819 
     92 H92        29.1610   -2.1907   -7.8028 H         1 UNK         0.0819 
     93 H93        28.7196   -2.8306   -6.2301 H         1 UNK         0.0819 
     94 H94        26.3274   -2.8626   -5.6731 H         1 UNK         0.3041 
     95 H95        23.1465   -1.3607   -4.9799 H         1 UNK         0.0784 
     96 H96        22.7380   -3.2656   -6.5289 H         1 UNK         0.0793 
     97 H97        24.0115   -4.1988   -5.7581 H         1 UNK         0.0793 
     98 H98        22.5586   -3.7692   -4.8567 H         1 UNK         0.0793 
     99 H99        24.7790   -3.2499   -3.5585 H         1 UNK         0.3024 
    100 H100       26.6327   -0.8959   -1.6660 H         1 UNK         0.1171 
    101 H101       24.4211   -0.7579   -0.5065 H         1 UNK         0.0786 
    102 H102       25.5031   -1.8746    0.3076 H         1 UNK         0.0786 
    103 H103       24.1964   -2.4903   -0.7052 H         1 UNK         0.0786 
    104 H104       26.3585   -3.6510   -1.2472 H         1 UNK         0.2977 
    105 H105       25.5418    1.1905   -4.5033 H         1 UNK         0.3127 
    106 H106       24.8473    3.9167   -4.7410 H         1 UNK         0.0770 
    107 H107       23.1649    1.3964   -5.2104 H         1 UNK         0.0814 
    108 H108       22.5188    3.0160   -4.9742 H         1 UNK         0.0814 
    109 H109       23.3896    2.2235   -3.6705 H         1 UNK         0.0814 
    110 H110       25.0797    1.3801   -7.2481 H         1 UNK         0.2983 
    111 H111       24.0886    3.0145   -9.4110 H         1 UNK         0.0947 
    112 H112       24.9469    1.1402  -10.8139 H         1 UNK         0.0806 
    113 H113       24.0321    0.5192   -9.4498 H         1 UNK         0.0806 
    114 H114       25.7940    0.4648   -9.4299 H         1 UNK         0.0806 
    115 H115       27.0329    3.1099   -7.7100 H         1 UNK         0.3000 
    116 H116       29.0076    4.0410   -7.9159 H         1 UNK         0.0850 
    117 H117       29.3397    6.0382   -9.3148 H         1 UNK         0.0810 
    118 H118       27.7467    6.1066   -8.5798 H         1 UNK         0.0810 
    119 H119       27.9199    5.6636  -10.2783 H         1 UNK         0.0810 
    120 H120       28.6680    1.5265   -9.0187 H         1 UNK         0.3040 
    121 H121       30.2978    1.3618  -11.4898 H         1 UNK         0.0766 
    122 H122       28.3118   -0.1487  -11.2079 H         1 UNK         0.0812 
    123 H123       29.0033   -0.7969   -9.7257 H         1 UNK         0.0812 
    124 H124       29.7991   -1.0783  -11.2674 H         1 UNK         0.0812 
    125 H125       32.1736   -0.1391  -11.4225 H         1 UNK         0.3205 
    126 H126       34.0343    0.5081   -9.3039 H         1 UNK         0.0754 
    127 H127       35.6417   -0.7176  -10.7446 H         1 UNK         0.0769 
    128 H128       34.7132    0.4292  -11.6922 H         1 UNK         0.0769 
    129 H129       34.3301   -1.2914  -11.7657 H         1 UNK         0.0769 
    130 H130       32.1507   -0.6625   -7.9386 H         1 UNK         0.2981 
    131 H131       31.6328   -2.1134   -6.4181 H         1 UNK         0.0541 
    132 H132       31.4087   -3.0778   -9.4319 H         1 UNK         0.3459 
    133 H133       30.8824   -4.7225   -9.1857 H         1 UNK         0.3459 
    134 H134       34.2478   -3.6500   -6.4552 H         1 UNK         0.0612 
    135 H135       34.3102   -1.9587   -6.0653 H         1 UNK         0.0612 
    136 H136       34.3231   -1.4261   -3.2182 H         1 UNK         0.0624 
    137 H137       33.1471   -0.7608   -4.3317 H         1 UNK         0.0624 
@<TRIPOS>BOND
     1    1    2 1    
     2    1   72 1    
     3    1   73 1    
     4    1   74 1    
     5    2    3 2    
     6    2    4 am   BACKBONE|DICT|INTERRES
     7    4    5 1    
     8    4   75 1    
     9    5    6 1    
    10    5   35 1    
    11    5   76 1    
    12    6    7 1    
    13    6   77 1    
    14    6   78 1    
    15    7    8 1    
    16    8    9 1    
    17    8   79 1    
    18    8   80 1    
    19    9   10 ar   
    20    9   14 ar   
    21   10   11 ar   
    22   10   81 1    
    23   11   12 ar   
    24   11   71 1    
    25   12   13 ar   
    26   12   82 1    
    27   13   14 ar   
    28   13   15 1    
    29   14   83 1    
    30   15   16 1    
    31   15   84 1    
    32   15   85 1    
    33   16   17 1    
    34   17   18 1    
    35   17   86 1    
    36   17   87 1    
    37   18   19 1    
    38   18   37 1    
    39   18   88 1    
    40   19   20 am   BACKBONE|DICT|INTERRES
    41   19   89 1    
    42   20   21 2    
    43   20   22 1    
    44   22   23 1    
    45   22   24 1    
    46   22   90 1    
    47   23   91 1    
    48   23   92 1    
    49   23   93 1    
    50   24   25 am   BACKBONE|DICT|INTERRES
    51   24   94 1    
    52   25   26 2    
    53   25   27 1    
    54   27   28 1    
    55   27   29 1    
    56   27   95 1    
    57   28   96 1    
    58   28   97 1    
    59   28   98 1    
    60   29   30 am   BACKBONE|DICT|INTERRES
    61   29   99 1    
    62   30   31 2    
    63   30   32 1    
    64   32   33 1    
    65   32   34 1    
    66   32  100 1    
    67   33  101 1    
    68   33  102 1    
    69   33  103 1    
    70   34   35 am   BACKBONE|DICT|INTERRES
    71   34  104 1    
    72   35   36 2    
    73   37   38 2    
    74   37   39 am   BACKBONE|DICT|INTERRES
    75   39   40 1    
    76   39  105 1    
    77   40   41 1    
    78   40   42 1    
    79   40  106 1    
    80   41  107 1    
    81   41  108 1    
    82   41  109 1    
    83   42   43 2    
    84   42   44 am   BACKBONE|DICT|INTERRES
    85   44   45 1    
    86   44  110 1    
    87   45   46 1    
    88   45   47 1    
    89   45  111 1    
    90   46  112 1    
    91   46  113 1    
    92   46  114 1    
    93   47   48 2    
    94   47   49 am   BACKBONE|DICT|INTERRES
    95   49   50 1    
    96   49  115 1    
    97   50   51 1    
    98   50   52 1    
    99   50  116 1    
   100   51  117 1    
   101   51  118 1    
   102   51  119 1    
   103   52   53 2    
   104   52   54 am   BACKBONE|DICT|INTERRES
   105   54   55 1    
   106   54  120 1    
   107   55   56 1    
   108   55   57 1    
   109   55  121 1    
   110   56  122 1    
   111   56  123 1    
   112   56  124 1    
   113   57   58 2    
   114   57   59 am   BACKBONE|DICT|INTERRES
   115   59   60 1    
   116   59  125 1    
   117   60   61 1    
   118   60   62 1    
   119   60  126 1    
   120   61  127 1    
   121   61  128 1    
   122   61  129 1    
   123   62   63 2    
   124   62   64 am   BACKBONE|DICT|INTERRES
   125   64   65 1    
   126   64  130 1    
   127   65   66 1    
   128   65   69 1    
   129   65  131 1    
   130   66   67 am   BACKBONE|DICT|INTERRES
   131   66   68 2    
   132   67  132 1    
   133   67  133 1    
   134   69   70 1    
   135   69  134 1    
   136   69  135 1    
   137   70   71 1    
   138   71  136 1    
   139   71  137 1    
@<TRIPOS>SUBSTRUCTURE
     1 UNK         1 GROUP             0       ****    0 ROOT    
