@<TRIPOS>MOLECULE
3R137
137   139    1
SMALL
USER_CHARGES


@<TRIPOS>ATOM
      1 CA         25.2499   -2.1751    1.4054 C.3       0 UNK        -0.2020 
      2 C          26.3975   -1.8241    0.4718 C.2       0 UNK         0.4855 
      3 O          26.7186   -0.6457    0.3142 O.2       0 UNK        -0.5197 
      4 N          27.0203   -2.8348   -0.1506 N.am      1 UNK        -0.4892 
      5 CA         28.1494   -2.6720   -1.0734 C.3       1 UNK         0.0835 
      6 C6         28.8039   -4.0289   -1.4312 C.3       12 UNK        -0.0855 
      7 S7         30.5743   -3.8374   -1.8294 S.3       12 UNK        -0.2931 
      8 C8         30.8176   -5.1120   -3.1060 C.3       12 UNK         0.0378 
      9 C9         30.3679   -4.6427   -4.4825 C.ar      12 UNK        -0.0802 
     10 C10        31.1771   -3.7734   -5.2208 C.ar      12 UNK        -0.0944 
     11 C11        30.7941   -3.3603   -6.5000 C.ar      12 UNK        -0.0787 
     12 C12        29.6008   -3.8388   -7.0463 C.ar      12 UNK        -0.0862 
     13 C13        28.7779   -4.7042   -6.3182 C.ar      12 UNK        -0.0733 
     14 C14        29.1669   -5.1008   -5.0341 C.ar      12 UNK        -0.0832 
     15 C15        27.4792   -5.2296   -6.9230 C.3       12 UNK         0.0240 
     16 S16        26.4343   -3.9075   -7.6201 S.3       12 UNK        -0.2522 
     17 C17        26.1414   -2.8673   -6.1524 C.3       12 UNK        -0.0967 
     18 CA         24.6562   -2.4670   -5.9839 C.3       5 UNK         0.0660 
     19 N          24.3878   -2.0460   -4.6088 N.am      5 UNK        -0.4015 
     20 C          23.1722   -1.8551   -4.0790 C.2       4 UNK         0.4946 
     21 O          22.1161   -2.0241   -4.6895 O.2       4 UNK        -0.5353 
     22 CA         23.1307   -1.4031   -2.6122 C.3       4 UNK         0.0277 
     23 CB         23.3001   -2.6050   -1.6690 C.3       4 UNK        -0.1981 
     24 N          24.1566   -0.3963   -2.3314 N.am      4 UNK        -0.4209 
     25 C          24.0258    0.9055   -2.6245 C.2       3 UNK         0.4942 
     26 O          22.9950    1.4067   -3.0745 O.2       3 UNK        -0.5208 
     27 CA         25.2513    1.8049   -2.3888 C.3       3 UNK         0.0250 
     28 CB         25.2285    2.3891   -0.9673 C.3       3 UNK        -0.1990 
     29 N          26.5251    1.1180   -2.6177 N.am      3 UNK        -0.4232 
     30 C          26.9661    0.7267   -3.8227 C.2       2 UNK         0.4993 
     31 O          26.3465    0.9021   -4.8698 O.2       2 UNK        -0.5286 
     32 CA         28.3072   -0.0219   -3.8730 C.3       2 UNK         0.0209 
     33 CB         29.4596    0.9857   -3.9870 C.3       2 UNK        -0.1931 
     34 N          28.5412   -0.9025   -2.7251 N.am      2 UNK        -0.4546 
     35 C          27.7273   -1.8922   -2.3336 C.2       1 UNK         0.5154 
     36 O          26.6683   -2.1777   -2.9012 O.2       1 UNK        -0.5181 
     37 C          24.2320   -1.4029   -7.0190 C.2       5 UNK         0.5014 
     38 O          23.6175   -1.7512   -8.0281 O.2       5 UNK        -0.5248 
     39 N          24.5871   -0.1351   -6.7549 N.am      6 UNK        -0.4434 
     40 CA         24.3938    1.0552   -7.5945 C.3       6 UNK         0.0363 
     41 CB         22.8974    1.3181   -7.8657 C.3       6 UNK        -0.1936 
     42 C          25.2396    1.0674   -8.8859 C.2       6 UNK         0.5081 
     43 O          25.0337    1.9412   -9.7293 O.2       6 UNK        -0.5248 
     44 N          26.1825    0.1233   -9.0232 N.am      7 UNK        -0.4718 
     45 CA         27.0817    0.0018  -10.1725 C.3       7 UNK         0.0273 
     46 CB         27.7068   -1.4036  -10.1877 C.3       7 UNK        -0.1935 
     47 C          28.1778    1.0782  -10.1836 C.2       7 UNK         0.5018 
     48 O          28.4587    1.6390  -11.2431 O.2       7 UNK        -0.5186 
     49 N          28.7789    1.3259   -9.0072 N.am      8 UNK        -0.4240 
     50 CA         29.8769    2.2715   -8.7482 C.3       8 UNK         0.0235 
     51 CB         29.3699    3.7250   -8.8539 C.3       8 UNK        -0.2000 
     52 C          31.1397    2.0196   -9.6031 C.2       8 UNK         0.4941 
     53 O          31.8630    2.9626   -9.9336 O.2       8 UNK        -0.5273 
     54 N          31.3896    0.7498   -9.9522 N.am      9 UNK        -0.4262 
     55 CA         32.5374    0.2956  -10.7367 C.3       9 UNK         0.0264 
     56 CB         32.2090   -1.0750  -11.3568 C.3       9 UNK        -0.1955 
     57 C          33.7942    0.2556   -9.8535 C.2       9 UNK         0.5031 
     58 O          34.1439   -0.8035   -9.3308 O.2       9 UNK        -0.5390 
     59 N          34.3924    1.4343   -9.6333 N.am      10 UNK        -0.4204 
     60 CA         35.5300    1.7490   -8.7522 C.3       10 UNK         0.0237 
     61 CB         36.7816    0.9215   -9.1073 C.3       10 UNK        -0.1985 
     62 C          35.2097    1.6650   -7.2465 C.2       10 UNK         0.4970 
     63 O          35.7870    2.4291   -6.4718 O.2       10 UNK        -0.4914 
     64 N          34.2942    0.7708   -6.8605 N.am      11 UNK        -0.4285 
     65 CA         33.6900    0.6628   -5.5282 C.3       11 UNK         0.1007 
     66 C          32.9250    1.9444   -5.0877 C.2       11 UNK         0.5703 
     67 N          32.8580    2.2065   -3.7891 N.am      11 UNK        -0.7361 
     68 O          32.3676    2.6797   -5.9011 O.2       11 UNK        -0.4986 
     69 C69        32.8027   -0.6070   -5.4242 C.3       12 UNK        -0.0947 
     70 S70        31.4845   -0.6950   -6.6938 S.3       12 UNK        -0.2240 
     71 C71        31.6627   -2.4007   -7.2989 C.3       12 UNK         0.0194 
     72 H72        24.8811   -3.1862    1.2340 H         1 UNK         0.0906 
     73 H73        25.5764   -2.1003    2.4422 H         1 UNK         0.0906 
     74 H74        24.4213   -1.4822    1.2616 H         1 UNK         0.0906 
     75 H75        26.6970   -3.7814   -0.0099 H         1 UNK         0.3140 
     76 H76        28.8836   -2.0703   -0.5320 H         1 UNK         0.1085 
     77 H77        28.2726   -4.5265   -2.2450 H         1 UNK         0.0836 
     78 H78        28.7503   -4.7108   -0.5809 H         1 UNK         0.0836 
     79 H79        30.3010   -6.0282   -2.8153 H         1 UNK         0.0731 
     80 H80        31.8781   -5.3654   -3.1460 H         1 UNK         0.0731 
     81 H81        32.1042   -3.4155   -4.7953 H         1 UNK         0.1312 
     82 H82        29.3052   -3.5330   -8.0402 H         1 UNK         0.1406 
     83 H83        28.5418   -5.7786   -4.4688 H         1 UNK         0.1631 
     84 H84        26.8977   -5.7801   -6.1817 H         1 UNK         0.0717 
     85 H85        27.7223   -5.9393   -7.7146 H         1 UNK         0.0717 
     86 H86        26.4643   -3.4289   -5.2743 H         1 UNK         0.0934 
     87 H87        26.7944   -1.9941   -6.1951 H         1 UNK         0.0934 
     88 H88        24.0435   -3.3542   -6.1593 H         1 UNK         0.0739 
     89 H89        25.1996   -1.9507   -4.0023 H         1 UNK         0.3093 
     90 H90        22.1455   -0.9691   -2.4264 H         1 UNK         0.0818 
     91 H91        22.5742   -3.3862   -1.8992 H         1 UNK         0.0819 
     92 H92        24.2926   -3.0502   -1.7464 H         1 UNK         0.0819 
     93 H93        23.1365   -2.3150   -0.6321 H         1 UNK         0.0819 
     94 H94        25.0508   -0.7290   -1.9960 H         1 UNK         0.3041 
     95 H95        25.1882    2.6344   -3.0967 H         1 UNK         0.0784 
     96 H96        24.3050    2.9417   -0.7883 H         1 UNK         0.0793 
     97 H97        25.2931    1.6096   -0.2073 H         1 UNK         0.0793 
     98 H98        26.0550    3.0821   -0.8091 H         1 UNK         0.0793 
     99 H99        27.0805    0.8987   -1.8015 H         1 UNK         0.3024 
    100 H100       28.3072   -0.6478   -4.7678 H         1 UNK         0.1171 
    101 H101       30.4195    0.4784   -4.0445 H         1 UNK         0.0786 
    102 H102       29.3625    1.5935   -4.8880 H         1 UNK         0.0786 
    103 H103       29.4938    1.6653   -3.1347 H         1 UNK         0.0786 
    104 H104       29.3931   -0.7452   -2.2061 H         1 UNK         0.2977 
    105 H105       25.1297    0.0534   -5.9120 H         1 UNK         0.3127 
    106 H106       24.7640    1.8904   -6.9979 H         1 UNK         0.0770 
    107 H107       22.4672    0.5721   -8.5341 H         1 UNK         0.0814 
    108 H108       22.7507    2.2922   -8.3337 H         1 UNK         0.0814 
    109 H109       22.3207    1.3145   -6.9406 H         1 UNK         0.0814 
    110 H110       26.2649   -0.5721   -8.2972 H         1 UNK         0.2983 
    111 H111       26.4911    0.1209  -11.0840 H         1 UNK         0.0947 
    112 H112       28.3816   -1.5224  -11.0368 H         1 UNK         0.0806 
    113 H113       26.9412   -2.1750  -10.2754 H         1 UNK         0.0806 
    114 H114       28.2811   -1.6052   -9.2829 H         1 UNK         0.0806 
    115 H115       28.4572    0.8043   -8.2044 H         1 UNK         0.3000 
    116 H116       30.1844    2.1066   -7.7141 H         1 UNK         0.0850 
    117 H117       30.1362    4.4314   -8.5318 H         1 UNK         0.0810 
    118 H118       28.4965    3.8873   -8.2223 H         1 UNK         0.0810 
    119 H119       29.0973    3.9834   -9.8776 H         1 UNK         0.0810 
    120 H120       30.7688    0.0337   -9.6065 H         1 UNK         0.3040 
    121 H121       32.7138    0.9984  -11.5541 H         1 UNK         0.0766 
    122 H122       31.3454   -1.0129  -12.0192 H         1 UNK         0.0812 
    123 H123       31.9950   -1.8279  -10.5980 H         1 UNK         0.0812 
    124 H124       33.0470   -1.4424  -11.9505 H         1 UNK         0.0812 
    125 H125       33.9191    2.2451  -10.0194 H         1 UNK         0.3205 
    126 H126       35.7662    2.7952   -8.9532 H         1 UNK         0.0754 
    127 H127       37.6452    1.2611   -8.5340 H         1 UNK         0.0769 
    128 H128       37.0351    1.0183  -10.1630 H         1 UNK         0.0769 
    129 H129       36.6485   -0.1384   -8.8891 H         1 UNK         0.0769 
    130 H130       33.9113    0.1570   -7.5702 H         1 UNK         0.2981 
    131 H131       34.5202    0.5376   -4.8305 H         1 UNK         0.0541 
    132 H132       33.3062    1.6113   -3.1106 H         1 UNK         0.3459 
    133 H133       32.3602    3.0275   -3.4837 H         1 UNK         0.3459 
    134 H134       33.4455   -1.4830   -5.5137 H         1 UNK         0.0612 
    135 H135       32.3500   -0.6892   -4.4354 H         1 UNK         0.0612 
    136 H136       32.7065   -2.7160   -7.2736 H         1 UNK         0.0624 
    137 H137       31.3722   -2.4198   -8.3496 H         1 UNK         0.0624 
@<TRIPOS>BOND
     1    1    2 1    
     2    1   72 1    
     3    1   73 1    
     4    1   74 1    
     5    2    3 2    
     6    2    4 am   BACKBONE|DICT|INTERRES
     7    4    5 1    
     8    4   75 1    
     9    5    6 1    
    10    5   35 1    
    11    5   76 1    
    12    6    7 1    
    13    6   77 1    
    14    6   78 1    
    15    7    8 1    
    16    8    9 1    
    17    8   79 1    
    18    8   80 1    
    19    9   10 ar   
    20    9   14 ar   
    21   10   11 ar   
    22   10   81 1    
    23   11   12 ar   
    24   11   71 1    
    25   12   13 ar   
    26   12   82 1    
    27   13   14 ar   
    28   13   15 1    
    29   14   83 1    
    30   15   16 1    
    31   15   84 1    
    32   15   85 1    
    33   16   17 1    
    34   17   18 1    
    35   17   86 1    
    36   17   87 1    
    37   18   19 1    
    38   18   37 1    
    39   18   88 1    
    40   19   20 am   BACKBONE|DICT|INTERRES
    41   19   89 1    
    42   20   21 2    
    43   20   22 1    
    44   22   23 1    
    45   22   24 1    
    46   22   90 1    
    47   23   91 1    
    48   23   92 1    
    49   23   93 1    
    50   24   25 am   BACKBONE|DICT|INTERRES
    51   24   94 1    
    52   25   26 2    
    53   25   27 1    
    54   27   28 1    
    55   27   29 1    
    56   27   95 1    
    57   28   96 1    
    58   28   97 1    
    59   28   98 1    
    60   29   30 am   BACKBONE|DICT|INTERRES
    61   29   99 1    
    62   30   31 2    
    63   30   32 1    
    64   32   33 1    
    65   32   34 1    
    66   32  100 1    
    67   33  101 1    
    68   33  102 1    
    69   33  103 1    
    70   34   35 am   BACKBONE|DICT|INTERRES
    71   34  104 1    
    72   35   36 2    
    73   37   38 2    
    74   37   39 am   BACKBONE|DICT|INTERRES
    75   39   40 1    
    76   39  105 1    
    77   40   41 1    
    78   40   42 1    
    79   40  106 1    
    80   41  107 1    
    81   41  108 1    
    82   41  109 1    
    83   42   43 2    
    84   42   44 am   BACKBONE|DICT|INTERRES
    85   44   45 1    
    86   44  110 1    
    87   45   46 1    
    88   45   47 1    
    89   45  111 1    
    90   46  112 1    
    91   46  113 1    
    92   46  114 1    
    93   47   48 2    
    94   47   49 am   BACKBONE|DICT|INTERRES
    95   49   50 1    
    96   49  115 1    
    97   50   51 1    
    98   50   52 1    
    99   50  116 1    
   100   51  117 1    
   101   51  118 1    
   102   51  119 1    
   103   52   53 2    
   104   52   54 am   BACKBONE|DICT|INTERRES
   105   54   55 1    
   106   54  120 1    
   107   55   56 1    
   108   55   57 1    
   109   55  121 1    
   110   56  122 1    
   111   56  123 1    
   112   56  124 1    
   113   57   58 2    
   114   57   59 am   BACKBONE|DICT|INTERRES
   115   59   60 1    
   116   59  125 1    
   117   60   61 1    
   118   60   62 1    
   119   60  126 1    
   120   61  127 1    
   121   61  128 1    
   122   61  129 1    
   123   62   63 2    
   124   62   64 am   BACKBONE|DICT|INTERRES
   125   64   65 1    
   126   64  130 1    
   127   65   66 1    
   128   65   69 1    
   129   65  131 1    
   130   66   67 am   BACKBONE|DICT|INTERRES
   131   66   68 2    
   132   67  132 1    
   133   67  133 1    
   134   69   70 1    
   135   69  134 1    
   136   69  135 1    
   137   70   71 1    
   138   71  136 1    
   139   71  137 1    
@<TRIPOS>SUBSTRUCTURE
     1 UNK         1 GROUP             0       ****    0 ROOT    
