@<TRIPOS>MOLECULE
3R137
137   139    1
SMALL
USER_CHARGES


@<TRIPOS>ATOM
      1 CA         27.1920   -7.0097   -3.4441 C.3       0 UNK        -0.2020 
      2 C          28.0601   -5.8646   -3.9560 C.2       0 UNK         0.4855 
      3 O          28.7554   -6.0331   -4.9549 O.2       0 UNK        -0.5197 
      4 N          28.0520   -4.6877   -3.3214 N.am      1 UNK        -0.4892 
      5 CA         27.2772   -4.3005   -2.1453 C.3       1 UNK         0.0835 
      6 C6         27.9765   -4.7156   -0.8174 C.3       12 UNK        -0.0855 
      7 S7         29.2936   -3.6217   -0.1747 S.3       12 UNK        -0.2931 
      8 C8         30.6855   -3.9380   -1.3121 C.3       12 UNK         0.0378 
      9 C9         30.8135   -2.8601   -2.3837 C.ar      12 UNK        -0.0802 
     10 C10        30.8764   -3.2035   -3.7377 C.ar      12 UNK        -0.0944 
     11 C11        31.0240   -2.2153   -4.7166 C.ar      12 UNK        -0.0787 
     12 C12        31.1118   -0.8738   -4.3319 C.ar      12 UNK        -0.0862 
     13 C13        31.0363   -0.5124   -2.9828 C.ar      12 UNK        -0.0733 
     14 C14        30.9008   -1.5132   -2.0171 C.ar      12 UNK        -0.0832 
     15 C15        31.1053    0.9481   -2.5403 C.3       12 UNK         0.0240 
     16 S16        30.1216    2.1062   -3.5562 S.3       12 UNK        -0.2522 
     17 C17        28.4789    1.3109   -3.6314 C.3       12 UNK        -0.0967 
     18 CA         28.0253    1.1319   -5.1054 C.3       5 UNK         0.0660 
     19 N          27.3846   -0.1614   -5.3503 N.am      5 UNK        -0.4015 
     20 C          27.0595   -0.6261   -6.5656 C.2       4 UNK         0.4946 
     21 O          27.3582   -0.0590   -7.6176 O.2       4 UNK        -0.5353 
     22 CA         26.2189   -1.9113   -6.6155 C.3       4 UNK         0.0277 
     23 CB         27.1132   -3.1581   -6.5581 C.3       4 UNK        -0.1981 
     24 N          25.2264   -1.9523   -5.5380 N.am      4 UNK        -0.4209 
     25 C          24.1372   -1.1701   -5.4931 C.2       3 UNK         0.4942 
     26 O          23.8288   -0.3804   -6.3833 O.2       3 UNK        -0.5208 
     27 CA         23.2647   -1.2496   -4.2287 C.3       3 UNK         0.0250 
     28 CB         22.2596   -2.4073   -4.3368 C.3       3 UNK        -0.1990 
     29 N          24.0496   -1.3912   -3.0002 N.am      3 UNK        -0.4232 
     30 C          24.8968   -0.4659   -2.5251 C.2       2 UNK         0.4993 
     31 O          25.0786    0.6329   -3.0484 O.2       2 UNK        -0.5286 
     32 CA         25.7316   -0.8637   -1.2960 C.3       2 UNK         0.0209 
     33 CB         24.9608   -0.5746    0.0017 C.3       2 UNK        -0.1931 
     34 N          26.1611   -2.2685   -1.3169 N.am      2 UNK        -0.4546 
     35 C          26.9415   -2.8002   -2.2688 C.2       1 UNK         0.5154 
     36 O          27.3558   -2.1547   -3.2377 O.2       1 UNK        -0.5181 
     37 C          27.1424    2.3029   -5.5876 C.2       5 UNK         0.5014 
     38 O          27.6290    3.1646   -6.3201 O.2       5 UNK        -0.5248 
     39 N          25.8497    2.2798   -5.2258 N.am      6 UNK        -0.4434 
     40 CA         24.8324    3.2392   -5.6725 C.3       6 UNK         0.0363 
     41 CB         23.5155    2.9802   -4.9238 C.3       6 UNK        -0.1936 
     42 C          24.6016    3.2272   -7.1956 C.2       6 UNK         0.5081 
     43 O          24.3800    4.2873   -7.7806 O.2       6 UNK        -0.5248 
     44 N          24.6998    2.0437   -7.8172 N.am      7 UNK        -0.4718 
     45 CA         24.6654    1.8443   -9.2708 C.3       7 UNK         0.0273 
     46 CB         24.3255    0.3743   -9.5681 C.3       7 UNK        -0.1935 
     47 C          25.9672    2.2554   -9.9910 C.2       7 UNK         0.5018 
     48 O          26.0112    2.1796  -11.2200 O.2       7 UNK        -0.5186 
     49 N          26.9905    2.6783   -9.2330 N.am      8 UNK        -0.4240 
     50 CA         28.3091    3.1354   -9.6772 C.3       8 UNK         0.0235 
     51 CB         28.1994    4.3957  -10.5643 C.3       8 UNK        -0.2000 
     52 C          29.1686    2.0209  -10.3019 C.2       8 UNK         0.4941 
     53 O          29.9329    2.2909  -11.2305 O.2       8 UNK        -0.5273 
     54 N          29.0766    0.7961   -9.7577 N.am      9 UNK        -0.4262 
     55 CA         29.9676   -0.3193  -10.1070 C.3       9 UNK         0.0264 
     56 CB         29.3777   -1.6385   -9.5853 C.3       9 UNK        -0.1955 
     57 C          31.4025   -0.1269   -9.5768 C.2       9 UNK         0.5031 
     58 O          32.3324   -0.7134  -10.1327 O.2       9 UNK        -0.5390 
     59 N          31.5507    0.6873   -8.5190 N.am      10 UNK        -0.4204 
     60 CA         32.7782    1.1559   -7.8577 C.3       10 UNK         0.0237 
     61 CB         33.6590    1.9677   -8.8275 C.3       10 UNK        -0.1985 
     62 C          33.6047    0.0735   -7.1416 C.2       10 UNK         0.4970 
     63 O          34.0277    0.3105   -6.0103 O.2       10 UNK        -0.4914 
     64 N          33.8208   -1.0735   -7.7983 N.am      11 UNK        -0.4285 
     65 CA         34.5943   -2.2309   -7.3121 C.3       11 UNK         0.1007 
     66 C          36.1094   -1.9420   -7.0639 C.2       11 UNK         0.5703 
     67 N          36.6862   -0.8984   -7.6499 N.am      11 UNK        -0.7361 
     68 O          36.7881   -2.6909   -6.3644 O.2       11 UNK        -0.4986 
     69 C69        33.8993   -2.9499   -6.1177 C.3       12 UNK        -0.0947 
     70 S70        32.3586   -3.7963   -6.6113 S.3       12 UNK        -0.2240 
     71 C71        31.0624   -2.5854   -6.1933 C.3       12 UNK         0.0194 
     72 H72        27.4508   -7.9387   -3.9527 H         1 UNK         0.0906 
     73 H73        27.3276   -7.1730   -2.3761 H         1 UNK         0.0906 
     74 H74        26.1389   -6.8066   -3.6382 H         1 UNK         0.0906 
     75 H75        28.5799   -3.9114   -3.7024 H         1 UNK         0.3140 
     76 H76        26.3130   -4.8103   -2.1940 H         1 UNK         0.1085 
     77 H77        27.2223   -4.7801   -0.0315 H         1 UNK         0.0836 
     78 H78        28.3813   -5.7251   -0.8937 H         1 UNK         0.0836 
     79 H79        30.5831   -4.9286   -1.7577 H         1 UNK         0.0731 
     80 H80        31.6095   -3.9579   -0.7330 H         1 UNK         0.0731 
     81 H81        30.8191   -4.2419   -4.0360 H         1 UNK         0.1312 
     82 H82        31.2274   -0.1051   -5.0827 H         1 UNK         0.1406 
     83 H83        30.8554   -1.2462   -0.9699 H         1 UNK         0.1631 
     84 H84        32.1478    1.2680   -2.5595 H         1 UNK         0.0717 
     85 H85        30.7722    1.0475   -1.5061 H         1 UNK         0.0717 
     86 H86        28.5270    0.3458   -3.1260 H         1 UNK         0.0934 
     87 H87        27.7681    1.8979   -3.0456 H         1 UNK         0.0934 
     88 H88        28.9116    1.1276   -5.7442 H         1 UNK         0.0739 
     89 H89        27.1753   -0.7348   -4.5378 H         1 UNK         0.3093 
     90 H90        25.6842   -1.9267   -7.5671 H         1 UNK         0.0818 
     91 H91        26.5232   -4.0745   -6.5408 H         1 UNK         0.0819 
     92 H92        27.7602   -3.2110   -7.4337 H         1 UNK         0.0819 
     93 H93        27.7566   -3.1562   -5.6794 H         1 UNK         0.0819 
     94 H94        25.4369   -2.5409   -4.7459 H         1 UNK         0.3041 
     95 H95        22.7024   -0.3160   -4.1576 H         1 UNK         0.0784 
     96 H96        21.6505   -2.3107   -5.2370 H         1 UNK         0.0793 
     97 H97        22.7581   -3.3764   -4.3835 H         1 UNK         0.0793 
     98 H98        21.5767   -2.4204   -3.4868 H         1 UNK         0.0793 
     99 H99        23.9611   -2.2615   -2.4966 H         1 UNK         0.3024 
    100 H100       26.6314   -0.2439   -1.3041 H         1 UNK         0.1171 
    101 H101       25.5797   -0.7601    0.8799 H         1 UNK         0.0786 
    102 H102       24.6474    0.4697    0.0442 H         1 UNK         0.0786 
    103 H103       24.0629   -1.1882    0.0867 H         1 UNK         0.0786 
    104 H104       25.8661   -2.8456   -0.5423 H         1 UNK         0.2977 
    105 H105       25.5405    1.5647   -4.5684 H         1 UNK         0.3127 
    106 H106       25.1857    4.2368   -5.4033 H         1 UNK         0.0770 
    107 H107       23.6510    3.0537   -3.8445 H         1 UNK         0.0814 
    108 H108       23.1154    1.9903   -5.1441 H         1 UNK         0.0814 
    109 H109       22.7556    3.7099   -5.2065 H         1 UNK         0.0814 
    110 H110       24.7975    1.2070   -7.2507 H         1 UNK         0.2983 
    111 H111       23.8665    2.4657   -9.6805 H         1 UNK         0.0947 
    112 H112       25.1094   -0.2961   -9.2167 H         1 UNK         0.0806 
    113 H113       24.2109    0.2060  -10.6397 H         1 UNK         0.0806 
    114 H114       23.3901    0.0776   -9.0934 H         1 UNK         0.0806 
    115 H115       26.8604    2.6768   -8.2271 H         1 UNK         0.3000 
    116 H116       28.8356    3.4322   -8.7689 H         1 UNK         0.0850 
    117 H117       27.5973    5.1672  -10.0839 H         1 UNK         0.0810 
    118 H118       27.7519    4.1740  -11.5337 H         1 UNK         0.0810 
    119 H119       29.1833    4.8265  -10.7539 H         1 UNK         0.0810 
    120 H120       28.3962    0.6237   -9.0175 H         1 UNK         0.3040 
    121 H121       30.0248   -0.3812  -11.1961 H         1 UNK         0.0766 
    122 H122       29.9869   -2.4891   -9.8955 H         1 UNK         0.0812 
    123 H123       28.3692   -1.8024   -9.9665 H         1 UNK         0.0812 
    124 H124       29.3310   -1.6526   -8.4969 H         1 UNK         0.0812 
    125 H125       30.6971    1.0719   -8.1404 H         1 UNK         0.3205 
    126 H126       32.4395    1.8432   -7.0802 H         1 UNK         0.0754 
    127 H127       34.5212    2.3914   -8.3101 H         1 UNK         0.0769 
    128 H128       33.1038    2.7979   -9.2640 H         1 UNK         0.0769 
    129 H129       34.0398    1.3552   -9.6454 H         1 UNK         0.0769 
    130 H130       33.4279   -1.1530   -8.7340 H         1 UNK         0.2981 
    131 H131       34.6050   -2.9345   -8.1455 H         1 UNK         0.0541 
    132 H132       37.6672   -0.7255   -7.4956 H         1 UNK         0.3459 
    133 H133       36.1507   -0.2846   -8.2417 H         1 UNK         0.3459 
    134 H134       34.5430   -3.7299   -5.7081 H         1 UNK         0.0612 
    135 H135       33.7123   -2.2607   -5.2932 H         1 UNK         0.0612 
    136 H136       30.0977   -3.0122   -6.4687 H         1 UNK         0.0624 
    137 H137       31.1926   -1.6994   -6.8144 H         1 UNK         0.0624 
@<TRIPOS>BOND
     1    1    2 1    
     2    1   72 1    
     3    1   73 1    
     4    1   74 1    
     5    2    3 2    
     6    2    4 am   BACKBONE|DICT|INTERRES
     7    4    5 1    
     8    4   75 1    
     9    5    6 1    
    10    5   35 1    
    11    5   76 1    
    12    6    7 1    
    13    6   77 1    
    14    6   78 1    
    15    7    8 1    
    16    8    9 1    
    17    8   79 1    
    18    8   80 1    
    19    9   10 ar   
    20    9   14 ar   
    21   10   11 ar   
    22   10   81 1    
    23   11   12 ar   
    24   11   71 1    
    25   12   13 ar   
    26   12   82 1    
    27   13   14 ar   
    28   13   15 1    
    29   14   83 1    
    30   15   16 1    
    31   15   84 1    
    32   15   85 1    
    33   16   17 1    
    34   17   18 1    
    35   17   86 1    
    36   17   87 1    
    37   18   19 1    
    38   18   37 1    
    39   18   88 1    
    40   19   20 am   BACKBONE|DICT|INTERRES
    41   19   89 1    
    42   20   21 2    
    43   20   22 1    
    44   22   23 1    
    45   22   24 1    
    46   22   90 1    
    47   23   91 1    
    48   23   92 1    
    49   23   93 1    
    50   24   25 am   BACKBONE|DICT|INTERRES
    51   24   94 1    
    52   25   26 2    
    53   25   27 1    
    54   27   28 1    
    55   27   29 1    
    56   27   95 1    
    57   28   96 1    
    58   28   97 1    
    59   28   98 1    
    60   29   30 am   BACKBONE|DICT|INTERRES
    61   29   99 1    
    62   30   31 2    
    63   30   32 1    
    64   32   33 1    
    65   32   34 1    
    66   32  100 1    
    67   33  101 1    
    68   33  102 1    
    69   33  103 1    
    70   34   35 am   BACKBONE|DICT|INTERRES
    71   34  104 1    
    72   35   36 2    
    73   37   38 2    
    74   37   39 am   BACKBONE|DICT|INTERRES
    75   39   40 1    
    76   39  105 1    
    77   40   41 1    
    78   40   42 1    
    79   40  106 1    
    80   41  107 1    
    81   41  108 1    
    82   41  109 1    
    83   42   43 2    
    84   42   44 am   BACKBONE|DICT|INTERRES
    85   44   45 1    
    86   44  110 1    
    87   45   46 1    
    88   45   47 1    
    89   45  111 1    
    90   46  112 1    
    91   46  113 1    
    92   46  114 1    
    93   47   48 2    
    94   47   49 am   BACKBONE|DICT|INTERRES
    95   49   50 1    
    96   49  115 1    
    97   50   51 1    
    98   50   52 1    
    99   50  116 1    
   100   51  117 1    
   101   51  118 1    
   102   51  119 1    
   103   52   53 2    
   104   52   54 am   BACKBONE|DICT|INTERRES
   105   54   55 1    
   106   54  120 1    
   107   55   56 1    
   108   55   57 1    
   109   55  121 1    
   110   56  122 1    
   111   56  123 1    
   112   56  124 1    
   113   57   58 2    
   114   57   59 am   BACKBONE|DICT|INTERRES
   115   59   60 1    
   116   59  125 1    
   117   60   61 1    
   118   60   62 1    
   119   60  126 1    
   120   61  127 1    
   121   61  128 1    
   122   61  129 1    
   123   62   63 2    
   124   62   64 am   BACKBONE|DICT|INTERRES
   125   64   65 1    
   126   64  130 1    
   127   65   66 1    
   128   65   69 1    
   129   65  131 1    
   130   66   67 am   BACKBONE|DICT|INTERRES
   131   66   68 2    
   132   67  132 1    
   133   67  133 1    
   134   69   70 1    
   135   69  134 1    
   136   69  135 1    
   137   70   71 1    
   138   71  136 1    
   139   71  137 1    
@<TRIPOS>SUBSTRUCTURE
     1 UNK         1 GROUP             0       ****    0 ROOT    
