@<TRIPOS>MOLECULE
3R137
137   139    1
SMALL
USER_CHARGES


@<TRIPOS>ATOM
      1 CA         24.2618   -5.8833   -5.7849 C.3       0 UNK        -0.2020 
      2 C          24.8511   -5.3868   -4.4738 C.2       0 UNK         0.4855 
      3 O          24.0991   -5.0625   -3.5545 O.2       0 UNK        -0.5197 
      4 N          26.1878   -5.3115   -4.3907 N.am      1 UNK        -0.4892 
      5 CA         26.9722   -4.8645   -3.2309 C.3       1 UNK         0.0835 
      6 C6         28.4895   -4.9103   -3.5447 C.3       12 UNK        -0.0855 
      7 S7         29.5096   -4.9118   -2.0350 S.3       12 UNK        -0.2931 
      8 C8         31.0617   -4.1708   -2.6506 C.3       12 UNK         0.0378 
      9 C9         31.0307   -2.6514   -2.8256 C.ar      12 UNK        -0.0802 
     10 C10        31.7845   -2.0672   -3.8507 C.ar      12 UNK        -0.0944 
     11 C11        31.8646   -0.6744   -3.9798 C.ar      12 UNK        -0.0787 
     12 C12        31.1586    0.1305   -3.0840 C.ar      12 UNK        -0.0862 
     13 C13        30.3800   -0.4318   -2.0696 C.ar      12 UNK        -0.0733 
     14 C14        30.3279   -1.8233   -1.9404 C.ar      12 UNK        -0.0832 
     15 C15        29.6336    0.4620   -1.0846 C.3       12 UNK         0.0240 
     16 S16        28.6930    1.8009   -1.8947 S.3       12 UNK        -0.2522 
     17 C17        27.4078    0.8657   -2.7868 C.3       12 UNK        -0.0967 
     18 CA         27.5196    0.9489   -4.3319 C.3       5 UNK         0.0660 
     19 N          26.7569   -0.1417   -4.9509 N.am      5 UNK        -0.4015 
     20 C          26.4716   -0.3349   -6.2466 C.2       4 UNK         0.4946 
     21 O          26.8741    0.3894   -7.1574 O.2       4 UNK        -0.5353 
     22 CA         25.5459   -1.5177   -6.5805 C.3       4 UNK         0.0277 
     23 CB         26.3580   -2.7703   -6.9420 C.3       4 UNK        -0.1981 
     24 N          24.6284   -1.8407   -5.4840 N.am      4 UNK        -0.4209 
     25 C          23.5307   -1.1379   -5.1698 C.2       3 UNK         0.4942 
     26 O          23.1603   -0.1378   -5.7845 O.2       3 UNK        -0.5208 
     27 CA         22.7160   -1.6264   -3.9594 C.3       3 UNK         0.0250 
     28 CB         21.6784   -2.6742   -4.3928 C.3       3 UNK        -0.1990 
     29 N          23.5684   -2.1828   -2.9043 N.am      3 UNK        -0.4232 
     30 C          24.2691   -1.4298   -2.0426 C.2       2 UNK         0.4993 
     31 O          24.1972   -0.2019   -1.9987 O.2       2 UNK        -0.5286 
     32 CA         25.2405   -2.1520   -1.0879 C.3       2 UNK         0.0209 
     33 CB         24.5482   -2.4614    0.2488 C.3       2 UNK        -0.1931 
     34 N          25.8182   -3.3863   -1.6324 N.am      2 UNK        -0.4546 
     35 C          26.5352   -3.4624   -2.7621 C.2       1 UNK         0.5154 
     36 O          26.7943   -2.4877   -3.4667 O.2       1 UNK        -0.5181 
     37 C          27.1135    2.3480   -4.8453 C.2       5 UNK         0.5014 
     38 O          27.9866    3.1750   -5.1107 O.2       5 UNK        -0.5248 
     39 N          25.8036    2.5647   -5.0416 N.am      6 UNK        -0.4434 
     40 CA         25.2184    3.7924   -5.5912 C.3       6 UNK         0.0363 
     41 CB         23.6866    3.6895   -5.5157 C.3       6 UNK        -0.1936 
     42 C          25.6622    4.1240   -7.0308 C.2       6 UNK         0.5081 
     43 O          25.6257    5.2940   -7.4122 O.2       6 UNK        -0.5248 
     44 N          26.0814    3.1070   -7.7945 N.am      7 UNK        -0.4718 
     45 CA         26.6284    3.2260   -9.1478 C.3       7 UNK         0.0273 
     46 CB         25.8930    2.2228  -10.0550 C.3       7 UNK        -0.1935 
     47 C          28.1507    2.9813   -9.1740 C.2       7 UNK         0.5018 
     48 O          28.7133    2.8550  -10.2621 O.2       7 UNK        -0.5186 
     49 N          28.7851    2.8948   -7.9925 N.am      8 UNK        -0.4240 
     50 CA         30.1928    2.5512   -7.7497 C.3       8 UNK         0.0235 
     51 CB         31.1441    3.6090   -8.3487 C.3       8 UNK        -0.2000 
     52 C          30.5666    1.1123   -8.1624 C.2       8 UNK         0.4941 
     53 O          31.7485    0.8418   -8.3895 O.2       8 UNK        -0.5273 
     54 N          29.5682    0.2137   -8.2068 N.am      9 UNK        -0.4262 
     55 CA         29.6449   -1.2231   -8.4935 C.3       9 UNK         0.0264 
     56 CB         29.9981   -1.9915   -7.1989 C.3       9 UNK        -0.1955 
     57 C          30.5528   -1.5530   -9.6944 C.2       9 UNK         0.5031 
     58 O          30.1955   -1.2286  -10.8283 O.2       9 UNK        -0.5390 
     59 N          31.7111   -2.1593   -9.4157 N.am      10 UNK        -0.4204 
     60 CA         32.8096   -2.3722  -10.3550 C.3       10 UNK         0.0237 
     61 CB         32.8692   -3.8635  -10.7386 C.3       10 UNK        -0.1985 
     62 C          34.1319   -1.8607   -9.7523 C.2       10 UNK         0.4970 
     63 O          35.1933   -2.3817  -10.0994 O.2       10 UNK        -0.4914 
     64 N          34.0576   -0.8679   -8.8522 N.am      11 UNK        -0.4285 
     65 CA         35.2250   -0.2725   -8.1806 C.3       11 UNK         0.1007 
     66 C          35.9949    0.7635   -9.0507 C.2       11 UNK         0.5703 
     67 N          35.4608    1.2170  -10.1791 N.am      11 UNK        -0.7361 
     68 O          37.1059    1.1544   -8.6997 O.2       11 UNK        -0.4986 
     69 C69        34.8595    0.3299   -6.7984 C.3       12 UNK        -0.0947 
     70 S70        34.1544   -0.8923   -5.6384 S.3       12 UNK        -0.2240 
     71 C71        32.6713    0.0088   -5.0814 C.3       12 UNK         0.0194 
     72 H72        23.6140   -6.7402   -5.6023 H         1 UNK         0.0906 
     73 H73        23.6651   -5.0991   -6.2499 H         1 UNK         0.0906 
     74 H74        25.0334   -6.1878   -6.4917 H         1 UNK         0.0906 
     75 H75        26.7353   -5.5888   -5.1927 H         1 UNK         0.3140 
     76 H76        26.7678   -5.5768   -2.4286 H         1 UNK         0.1085 
     77 H77        28.7856   -4.0863   -4.1983 H         1 UNK         0.0836 
     78 H78        28.7330   -5.8246   -4.0884 H         1 UNK         0.0836 
     79 H79        31.3319   -4.6589   -3.5885 H         1 UNK         0.0731 
     80 H80        31.8566   -4.4099   -1.9431 H         1 UNK         0.0731 
     81 H81        32.3272   -2.7022   -4.5368 H         1 UNK         0.1312 
     82 H82        31.2117    1.2068   -3.1773 H         1 UNK         0.1406 
     83 H83        29.7535   -2.2616   -1.1360 H         1 UNK         0.1631 
     84 H84        30.3596    0.9091   -0.4045 H         1 UNK         0.0717 
     85 H85        28.9515   -0.1230   -0.4654 H         1 UNK         0.0717 
     86 H86        27.4758   -0.1745   -2.4684 H         1 UNK         0.0934 
     87 H87        26.4298    1.2097   -2.4454 H         1 UNK         0.0934 
     88 H88        28.5610    0.7840   -4.6159 H         1 UNK         0.0739 
     89 H89        26.4950   -0.8939   -4.3178 H         1 UNK         0.3093 
     90 H90        24.9515   -1.2343   -7.4519 H         1 UNK         0.0818 
     91 H91        27.0444   -3.0568   -6.1446 H         1 UNK         0.0819 
     92 H92        25.7070   -3.6186   -7.1504 H         1 UNK         0.0819 
     93 H93        26.9485   -2.6034   -7.8404 H         1 UNK         0.0819 
     94 H94        24.8965   -2.6048   -4.8807 H         1 UNK         0.3041 
     95 H95        22.1749   -0.7673   -3.5561 H         1 UNK         0.0784 
     96 H96        21.0082   -2.2675   -5.1515 H         1 UNK         0.0793 
     97 H97        22.1477   -3.5625   -4.8160 H         1 UNK         0.0793 
     98 H98        21.0608   -2.9910   -3.5522 H         1 UNK         0.0793 
     99 H99        23.6905   -3.1918   -2.8916 H         1 UNK         0.3024 
    100 H100       26.0662   -1.4645   -0.8924 H         1 UNK         0.1171 
    101 H101       25.2492   -2.8769    0.9730 H         1 UNK         0.0786 
    102 H102       24.1290   -1.5558    0.6903 H         1 UNK         0.0786 
    103 H103       23.7302   -3.1723    0.1249 H         1 UNK         0.0786 
    104 H104       25.6056   -4.2399   -1.1358 H         1 UNK         0.2977 
    105 H105       25.1585    1.8171   -4.8267 H         1 UNK         0.3127 
    106 H106       25.5391    4.6211   -4.9564 H         1 UNK         0.0770 
    107 H107       23.3098    2.8531   -6.1063 H         1 UNK         0.0814 
    108 H108       23.2142    4.5965   -5.8958 H         1 UNK         0.0814 
    109 H109       23.3466    3.5555   -4.4886 H         1 UNK         0.0814 
    110 H110       26.1166    2.1723   -7.3958 H         1 UNK         0.2983 
    111 H111       26.4610    4.2306   -9.5415 H         1 UNK         0.0947 
    112 H112       26.2237    2.3110  -11.0907 H         1 UNK         0.0806 
    113 H113       24.8167    2.3956  -10.0456 H         1 UNK         0.0806 
    114 H114       26.0699    1.1929   -9.7419 H         1 UNK         0.0806 
    115 H115       28.2335    3.0321   -7.1515 H         1 UNK         0.3000 
    116 H116       30.3176    2.5821   -6.6663 H         1 UNK         0.0850 
    117 H117       32.1715    3.4389   -8.0240 H         1 UNK         0.0810 
    118 H118       30.8688    4.6152   -8.0332 H         1 UNK         0.0810 
    119 H119       31.1430    3.5846   -9.4387 H         1 UNK         0.0810 
    120 H120       28.6315    0.5443   -7.9912 H         1 UNK         0.3040 
    121 H121       28.6415   -1.5172   -8.7976 H         1 UNK         0.0766 
    122 H122       29.2882   -1.7670   -6.4025 H         1 UNK         0.0812 
    123 H123       30.9889   -1.7379   -6.8241 H         1 UNK         0.0812 
    124 H124       29.9660   -3.0702   -7.3578 H         1 UNK         0.0812 
    125 H125       31.9131   -2.3722   -8.4487 H         1 UNK         0.3205 
    126 H126       32.6451   -1.7893  -11.2635 H         1 UNK         0.0754 
    127 H127       33.6421   -4.0482  -11.4858 H         1 UNK         0.0769 
    128 H128       31.9238   -4.1991  -11.1654 H         1 UNK         0.0769 
    129 H129       33.0893   -4.4924   -9.8752 H         1 UNK         0.0769 
    130 H130       33.1656   -0.4150   -8.6659 H         1 UNK         0.2981 
    131 H131       35.9392   -1.0761   -7.9905 H         1 UNK         0.0541 
    132 H132       35.9724    1.8832  -10.7358 H         1 UNK         0.3459 
    133 H133       34.5445    0.9135  -10.4666 H         1 UNK         0.3459 
    134 H134       34.1632    1.1604   -6.9291 H         1 UNK         0.0612 
    135 H135       35.7446    0.7510   -6.3181 H         1 UNK         0.0612 
    136 H136       32.9893    0.9966   -4.7437 H         1 UNK         0.0624 
    137 H137       32.0130    0.1700   -5.9295 H         1 UNK         0.0624 
@<TRIPOS>BOND
     1    1    2 1    
     2    1   72 1    
     3    1   73 1    
     4    1   74 1    
     5    2    3 2    
     6    2    4 am   BACKBONE|DICT|INTERRES
     7    4    5 1    
     8    4   75 1    
     9    5    6 1    
    10    5   35 1    
    11    5   76 1    
    12    6    7 1    
    13    6   77 1    
    14    6   78 1    
    15    7    8 1    
    16    8    9 1    
    17    8   79 1    
    18    8   80 1    
    19    9   10 ar   
    20    9   14 ar   
    21   10   11 ar   
    22   10   81 1    
    23   11   12 ar   
    24   11   71 1    
    25   12   13 ar   
    26   12   82 1    
    27   13   14 ar   
    28   13   15 1    
    29   14   83 1    
    30   15   16 1    
    31   15   84 1    
    32   15   85 1    
    33   16   17 1    
    34   17   18 1    
    35   17   86 1    
    36   17   87 1    
    37   18   19 1    
    38   18   37 1    
    39   18   88 1    
    40   19   20 am   BACKBONE|DICT|INTERRES
    41   19   89 1    
    42   20   21 2    
    43   20   22 1    
    44   22   23 1    
    45   22   24 1    
    46   22   90 1    
    47   23   91 1    
    48   23   92 1    
    49   23   93 1    
    50   24   25 am   BACKBONE|DICT|INTERRES
    51   24   94 1    
    52   25   26 2    
    53   25   27 1    
    54   27   28 1    
    55   27   29 1    
    56   27   95 1    
    57   28   96 1    
    58   28   97 1    
    59   28   98 1    
    60   29   30 am   BACKBONE|DICT|INTERRES
    61   29   99 1    
    62   30   31 2    
    63   30   32 1    
    64   32   33 1    
    65   32   34 1    
    66   32  100 1    
    67   33  101 1    
    68   33  102 1    
    69   33  103 1    
    70   34   35 am   BACKBONE|DICT|INTERRES
    71   34  104 1    
    72   35   36 2    
    73   37   38 2    
    74   37   39 am   BACKBONE|DICT|INTERRES
    75   39   40 1    
    76   39  105 1    
    77   40   41 1    
    78   40   42 1    
    79   40  106 1    
    80   41  107 1    
    81   41  108 1    
    82   41  109 1    
    83   42   43 2    
    84   42   44 am   BACKBONE|DICT|INTERRES
    85   44   45 1    
    86   44  110 1    
    87   45   46 1    
    88   45   47 1    
    89   45  111 1    
    90   46  112 1    
    91   46  113 1    
    92   46  114 1    
    93   47   48 2    
    94   47   49 am   BACKBONE|DICT|INTERRES
    95   49   50 1    
    96   49  115 1    
    97   50   51 1    
    98   50   52 1    
    99   50  116 1    
   100   51  117 1    
   101   51  118 1    
   102   51  119 1    
   103   52   53 2    
   104   52   54 am   BACKBONE|DICT|INTERRES
   105   54   55 1    
   106   54  120 1    
   107   55   56 1    
   108   55   57 1    
   109   55  121 1    
   110   56  122 1    
   111   56  123 1    
   112   56  124 1    
   113   57   58 2    
   114   57   59 am   BACKBONE|DICT|INTERRES
   115   59   60 1    
   116   59  125 1    
   117   60   61 1    
   118   60   62 1    
   119   60  126 1    
   120   61  127 1    
   121   61  128 1    
   122   61  129 1    
   123   62   63 2    
   124   62   64 am   BACKBONE|DICT|INTERRES
   125   64   65 1    
   126   64  130 1    
   127   65   66 1    
   128   65   69 1    
   129   65  131 1    
   130   66   67 am   BACKBONE|DICT|INTERRES
   131   66   68 2    
   132   67  132 1    
   133   67  133 1    
   134   69   70 1    
   135   69  134 1    
   136   69  135 1    
   137   70   71 1    
   138   71  136 1    
   139   71  137 1    
@<TRIPOS>SUBSTRUCTURE
     1 UNK         1 GROUP             0       ****    0 ROOT    
