@<TRIPOS>MOLECULE
3R137
137   139    1
SMALL
USER_CHARGES


@<TRIPOS>ATOM
      1 CA         32.7100   -5.4355   -3.8314 C.3       0 UNK        -0.2020 
      2 C          31.9151   -4.8689   -2.6644 C.2       0 UNK         0.4855 
      3 O          31.9778   -5.4132   -1.5614 O.2       0 UNK        -0.5197 
      4 N          31.1752   -3.7774   -2.8940 N.am      1 UNK        -0.4892 
      5 CA         30.2834   -3.1500   -1.9147 C.3       1 UNK         0.0835 
      6 C6         29.8897   -1.7160   -2.3534 C.3       12 UNK        -0.0855 
      7 S7         29.6735   -0.5904   -0.9339 S.3       12 UNK        -0.2931 
      8 C8         27.8795   -0.2451   -0.9730 C.3       12 UNK         0.0378 
      9 C9         27.3615    0.5719   -2.1608 C.ar      12 UNK        -0.0802 
     10 C10        28.2016    1.1575   -3.1190 C.ar      12 UNK        -0.0944 
     11 C11        27.6675    1.8679   -4.1979 C.ar      12 UNK        -0.0787 
     12 C12        26.2846    2.0276   -4.3047 C.ar      12 UNK        -0.0862 
     13 C13        25.4339    1.4493   -3.3614 C.ar      12 UNK        -0.0733 
     14 C14        25.9778    0.7327   -2.2916 C.ar      12 UNK        -0.0832 
     15 C15        23.9260    1.5759   -3.5067 C.3       12 UNK         0.0240 
     16 S16        23.1996    0.0523   -4.1879 S.3       12 UNK        -0.2522 
     17 C17        23.6391    0.1563   -5.9593 C.3       12 UNK        -0.0967 
     18 CA         24.9409   -0.5996   -6.3350 C.3       5 UNK         0.0660 
     19 N          24.9572   -1.9762   -5.8359 N.am      5 UNK        -0.4015 
     20 C          26.0111   -2.8023   -5.8641 C.2       4 UNK         0.4946 
     21 O          27.1039   -2.5099   -6.3531 O.2       4 UNK        -0.5353 
     22 CA         25.8171   -4.1621   -5.1679 C.3       4 UNK         0.0277 
     23 CB         26.9495   -5.1569   -5.4859 C.3       4 UNK        -0.1981 
     24 N          25.7266   -3.9668   -3.7173 N.am      4 UNK        -0.4209 
     25 C          24.6107   -3.5792   -3.0793 C.2       3 UNK         0.4942 
     26 O          23.5250   -3.4698   -3.6529 O.2       3 UNK        -0.5208 
     27 CA         24.7102   -3.1882   -1.5886 C.3       3 UNK         0.0250 
     28 CB         23.4252   -3.5226   -0.8009 C.3       3 UNK        -0.1990 
     29 N          25.9040   -3.6902   -0.8973 N.am      3 UNK        -0.4232 
     30 C          26.2297   -4.9657   -0.6442 C.2       2 UNK         0.4993 
     31 O          25.5172   -5.9294   -0.9301 O.2       2 UNK        -0.5286 
     32 CA         27.6051   -5.1879    0.0236 C.3       2 UNK         0.0209 
     33 CB         28.0994   -6.6433   -0.1240 C.3       2 UNK        -0.1931 
     34 N          28.6573   -4.2559   -0.4247 N.am      2 UNK        -0.4546 
     35 C          29.0447   -4.0406   -1.6921 C.2       1 UNK         0.5154 
     36 O          28.4557   -4.5002   -2.6719 O.2       1 UNK        -0.5181 
     37 C          25.1758   -0.5459   -7.8577 C.2       5 UNK         0.5014 
     38 O          24.5907   -1.3429   -8.5964 O.2       5 UNK        -0.5248 
     39 N          26.0063    0.4045   -8.2943 N.am      6 UNK        -0.4434 
     40 CA         26.4390    0.6112   -9.6723 C.3       6 UNK         0.0363 
     41 CB         27.4704   -0.4700  -10.0637 C.3       6 UNK        -0.1936 
     42 C          27.0041    2.0363   -9.7997 C.2       6 UNK         0.5081 
     43 O          26.8165    2.8603   -8.8997 O.2       6 UNK        -0.5248 
     44 N          27.6855    2.3125  -10.9169 N.am      7 UNK        -0.4718 
     45 CA         28.3375    3.5870  -11.2195 C.3       7 UNK         0.0273 
     46 CB         28.5922    3.6588  -12.7370 C.3       7 UNK        -0.1935 
     47 C          29.6305    3.7975  -10.4048 C.2       7 UNK         0.5018 
     48 O          30.7254    3.6401  -10.9500 O.2       7 UNK        -0.5186 
     49 N          29.4741    4.1542   -9.1215 N.am      8 UNK        -0.4240 
     50 CA         30.5015    4.6098   -8.1721 C.3       8 UNK         0.0235 
     51 CB         30.9429    6.0487   -8.5183 C.3       8 UNK        -0.2000 
     52 C          31.6887    3.6390   -8.0286 C.2       8 UNK         0.4941 
     53 O          31.6203    2.7142   -7.2218 O.2       8 UNK        -0.5273 
     54 N          32.7484    3.8395   -8.8251 N.am      9 UNK        -0.4262 
     55 CA         33.9166    2.9559   -8.9081 C.3       9 UNK         0.0264 
     56 CB         34.9599    3.5807   -9.8478 C.3       9 UNK        -0.1955 
     57 C          33.5741    1.5223   -9.3582 C.2       9 UNK         0.5031 
     58 O          34.2895    0.5889   -8.9912 O.2       9 UNK        -0.5390 
     59 N          32.4732    1.3634  -10.1081 N.am      10 UNK        -0.4204 
     60 CA         31.9298    0.0708  -10.5295 C.3       10 UNK         0.0237 
     61 CB         30.8770    0.3015  -11.6248 C.3       10 UNK        -0.1985 
     62 C          31.3416   -0.7756   -9.3819 C.2       10 UNK         0.4970 
     63 O          31.1252   -1.9695   -9.5922 O.2       10 UNK        -0.4914 
     64 N          31.0869   -0.1757   -8.2083 N.am      11 UNK        -0.4285 
     65 CA         30.5770   -0.8755   -7.0149 C.3       11 UNK         0.1007 
     66 C          31.6027   -1.8343   -6.3425 C.2       11 UNK         0.5703 
     67 N          32.8868   -1.7860   -6.6809 N.am      11 UNK        -0.7361 
     68 O          31.2258   -2.6361   -5.4921 O.2       11 UNK        -0.4986 
     69 C69        29.9929    0.0995   -5.9595 C.3       12 UNK        -0.0947 
     70 S70        28.7562    1.2473   -6.6417 S.3       12 UNK        -0.2240 
     71 C71        28.5774    2.4317   -5.2756 C.3       12 UNK         0.0194 
     72 H72        32.5294   -4.8852   -4.7543 H         1 UNK         0.0906 
     73 H73        33.7770   -5.3940   -3.6145 H         1 UNK         0.0906 
     74 H74        32.4362   -6.4765   -4.0009 H         1 UNK         0.0906 
     75 H75        31.1400   -3.3898   -3.8367 H         1 UNK         0.3140 
     76 H76        30.8427   -3.0913   -0.9779 H         1 UNK         0.1085 
     77 H77        29.0068   -1.7127   -2.9969 H         1 UNK         0.0836 
     78 H78        30.6859   -1.2797   -2.9592 H         1 UNK         0.0836 
     79 H79        27.6221    0.2869   -0.0560 H         1 UNK         0.0731 
     80 H80        27.3483   -1.1955   -0.9355 H         1 UNK         0.0731 
     81 H81        29.2742    1.0505   -3.0513 H         1 UNK         0.1312 
     82 H82        25.8709    2.5733   -5.1418 H         1 UNK         0.1406 
     83 H83        25.3136    0.2891   -1.5623 H         1 UNK         0.1631 
     84 H84        23.6603    2.4286   -4.1333 H         1 UNK         0.0717 
     85 H85        23.4835    1.7687   -2.5283 H         1 UNK         0.0717 
     86 H86        22.7952   -0.2482   -6.5222 H         1 UNK         0.0934 
     87 H87        23.7112    1.2065   -6.2482 H         1 UNK         0.0934 
     88 H88        25.7819   -0.1003   -5.8533 H         1 UNK         0.0739 
     89 H89        24.1197   -2.2889   -5.3588 H         1 UNK         0.3093 
     90 H90        24.8858   -4.5988   -5.5352 H         1 UNK         0.0818 
     91 H91        27.9281   -4.7637   -5.2084 H         1 UNK         0.0819 
     92 H92        26.8080   -6.1019   -4.9615 H         1 UNK         0.0819 
     93 H93        26.9822   -5.3766   -6.5536 H         1 UNK         0.0819 
     94 H94        26.5986   -4.0541   -3.2024 H         1 UNK         0.3041 
     95 H95        24.8082   -2.1024   -1.5888 H         1 UNK         0.0784 
     96 H96        22.5621   -3.0051   -1.2216 H         1 UNK         0.0793 
     97 H97        23.2030   -4.5898   -0.8214 H         1 UNK         0.0793 
     98 H98        23.5065   -3.2155    0.2417 H         1 UNK         0.0793 
     99 H99        26.5742   -2.9891   -0.6187 H         1 UNK         0.3024 
    100 H100       27.4522   -4.9989    1.0877 H         1 UNK         0.1171 
    101 H101       29.0555   -6.7909    0.3783 H         1 UNK         0.0786 
    102 H102       27.3922   -7.3471    0.3168 H         1 UNK         0.0786 
    103 H103       28.2260   -6.9204   -1.1714 H         1 UNK         0.0786 
    104 H104       29.1800   -3.8050    0.3147 H         1 UNK         0.2977 
    105 H105       26.4175    1.0623   -7.6415 H         1 UNK         0.3127 
    106 H106       25.5698    0.5411  -10.3292 H         1 UNK         0.0770 
    107 H107       28.3769   -0.3867   -9.4642 H         1 UNK         0.0814 
    108 H108       27.7557   -0.3993  -11.1132 H         1 UNK         0.0814 
    109 H109       27.0734   -1.4744   -9.9167 H         1 UNK         0.0814 
    110 H110       27.7938    1.5828  -11.6059 H         1 UNK         0.2983 
    111 H111       27.6531    4.3989  -10.9623 H         1 UNK         0.0947 
    112 H112       29.0739    4.5997  -13.0070 H         1 UNK         0.0806 
    113 H113       27.6602    3.6015  -13.2996 H         1 UNK         0.0806 
    114 H114       29.2415    2.8518  -13.0792 H         1 UNK         0.0806 
    115 H115       28.5284    4.1091   -8.7561 H         1 UNK         0.3000 
    116 H116       30.0203    4.6421   -7.1933 H         1 UNK         0.0850 
    117 H117       31.7210    6.3970   -7.8374 H         1 UNK         0.0810 
    118 H118       30.1075    6.7433   -8.4292 H         1 UNK         0.0810 
    119 H119       31.3294    6.1329   -9.5345 H         1 UNK         0.0810 
    120 H120       32.6994    4.5942   -9.4947 H         1 UNK         0.3040 
    121 H121       34.3499    2.8875   -7.9081 H         1 UNK         0.0766 
    122 H122       35.8521    2.9558   -9.9104 H         1 UNK         0.0812 
    123 H123       35.2780    4.5613   -9.4931 H         1 UNK         0.0812 
    124 H124       34.5721    3.6977  -10.8606 H         1 UNK         0.0812 
    125 H125       31.9436    2.1912  -10.3714 H         1 UNK         0.3205 
    126 H126       32.7481   -0.5068  -10.9646 H         1 UNK         0.0754 
    127 H127       30.0291    0.8687  -11.2456 H         1 UNK         0.0769 
    128 H128       30.4928   -0.6453  -12.0071 H         1 UNK         0.0769 
    129 H129       31.2945    0.8478  -12.4709 H         1 UNK         0.0769 
    130 H130       31.2871    0.8102   -8.0834 H         1 UNK         0.2981 
    131 H131       29.7533   -1.5100   -7.3485 H         1 UNK         0.0541 
    132 H132       33.2107   -1.1255   -7.3717 H         1 UNK         0.3459 
    133 H133       33.5385   -2.4126   -6.2375 H         1 UNK         0.3459 
    134 H134       30.7922    0.6831   -5.4993 H         1 UNK         0.0612 
    135 H135       29.5114   -0.4614   -5.1572 H         1 UNK         0.0612 
    136 H136       28.1574    3.3584   -5.6693 H         1 UNK         0.0624 
    137 H137       29.5574    2.6868   -4.8696 H         1 UNK         0.0624 
@<TRIPOS>BOND
     1    1    2 1    
     2    1   72 1    
     3    1   73 1    
     4    1   74 1    
     5    2    3 2    
     6    2    4 am   BACKBONE|DICT|INTERRES
     7    4    5 1    
     8    4   75 1    
     9    5    6 1    
    10    5   35 1    
    11    5   76 1    
    12    6    7 1    
    13    6   77 1    
    14    6   78 1    
    15    7    8 1    
    16    8    9 1    
    17    8   79 1    
    18    8   80 1    
    19    9   10 ar   
    20    9   14 ar   
    21   10   11 ar   
    22   10   81 1    
    23   11   12 ar   
    24   11   71 1    
    25   12   13 ar   
    26   12   82 1    
    27   13   14 ar   
    28   13   15 1    
    29   14   83 1    
    30   15   16 1    
    31   15   84 1    
    32   15   85 1    
    33   16   17 1    
    34   17   18 1    
    35   17   86 1    
    36   17   87 1    
    37   18   19 1    
    38   18   37 1    
    39   18   88 1    
    40   19   20 am   BACKBONE|DICT|INTERRES
    41   19   89 1    
    42   20   21 2    
    43   20   22 1    
    44   22   23 1    
    45   22   24 1    
    46   22   90 1    
    47   23   91 1    
    48   23   92 1    
    49   23   93 1    
    50   24   25 am   BACKBONE|DICT|INTERRES
    51   24   94 1    
    52   25   26 2    
    53   25   27 1    
    54   27   28 1    
    55   27   29 1    
    56   27   95 1    
    57   28   96 1    
    58   28   97 1    
    59   28   98 1    
    60   29   30 am   BACKBONE|DICT|INTERRES
    61   29   99 1    
    62   30   31 2    
    63   30   32 1    
    64   32   33 1    
    65   32   34 1    
    66   32  100 1    
    67   33  101 1    
    68   33  102 1    
    69   33  103 1    
    70   34   35 am   BACKBONE|DICT|INTERRES
    71   34  104 1    
    72   35   36 2    
    73   37   38 2    
    74   37   39 am   BACKBONE|DICT|INTERRES
    75   39   40 1    
    76   39  105 1    
    77   40   41 1    
    78   40   42 1    
    79   40  106 1    
    80   41  107 1    
    81   41  108 1    
    82   41  109 1    
    83   42   43 2    
    84   42   44 am   BACKBONE|DICT|INTERRES
    85   44   45 1    
    86   44  110 1    
    87   45   46 1    
    88   45   47 1    
    89   45  111 1    
    90   46  112 1    
    91   46  113 1    
    92   46  114 1    
    93   47   48 2    
    94   47   49 am   BACKBONE|DICT|INTERRES
    95   49   50 1    
    96   49  115 1    
    97   50   51 1    
    98   50   52 1    
    99   50  116 1    
   100   51  117 1    
   101   51  118 1    
   102   51  119 1    
   103   52   53 2    
   104   52   54 am   BACKBONE|DICT|INTERRES
   105   54   55 1    
   106   54  120 1    
   107   55   56 1    
   108   55   57 1    
   109   55  121 1    
   110   56  122 1    
   111   56  123 1    
   112   56  124 1    
   113   57   58 2    
   114   57   59 am   BACKBONE|DICT|INTERRES
   115   59   60 1    
   116   59  125 1    
   117   60   61 1    
   118   60   62 1    
   119   60  126 1    
   120   61  127 1    
   121   61  128 1    
   122   61  129 1    
   123   62   63 2    
   124   62   64 am   BACKBONE|DICT|INTERRES
   125   64   65 1    
   126   64  130 1    
   127   65   66 1    
   128   65   69 1    
   129   65  131 1    
   130   66   67 am   BACKBONE|DICT|INTERRES
   131   66   68 2    
   132   67  132 1    
   133   67  133 1    
   134   69   70 1    
   135   69  134 1    
   136   69  135 1    
   137   70   71 1    
   138   71  136 1    
   139   71  137 1    
@<TRIPOS>SUBSTRUCTURE
     1 UNK         1 GROUP             0       ****    0 ROOT    
