@<TRIPOS>MOLECULE
3R137
137   139    1
SMALL
USER_CHARGES


@<TRIPOS>ATOM
      1 CA         25.4489   -4.5983   -3.7014 C.3       0 UNK        -0.2020 
      2 C          25.6799   -3.9181   -2.3624 C.2       0 UNK         0.4855 
      3 O          24.7189   -3.4835   -1.7276 O.2       0 UNK        -0.5197 
      4 N          26.9449   -3.8250   -1.9315 N.am      1 UNK        -0.4892 
      5 CA         27.3801   -3.3145   -0.6249 C.3       1 UNK         0.0835 
      6 C6         28.9099   -3.4617   -0.4140 C.3       12 UNK        -0.0855 
      7 S7         29.5415   -5.1199   -0.8520 S.3       12 UNK        -0.2931 
      8 C8         31.0472   -4.7160   -1.7979 C.3       12 UNK         0.0378 
      9 C9         30.7563   -3.9936   -3.1088 C.ar      12 UNK        -0.0802 
     10 C10        31.0101   -2.6235   -3.2283 C.ar      12 UNK        -0.0944 
     11 C11        30.8038   -1.9645   -4.4430 C.ar      12 UNK        -0.0787 
     12 C12        30.3320   -2.6831   -5.5452 C.ar      12 UNK        -0.0862 
     13 C13        30.0739   -4.0520   -5.4400 C.ar      12 UNK        -0.0733 
     14 C14        30.2836   -4.7018   -4.2183 C.ar      12 UNK        -0.0832 
     15 C15        29.6102   -4.8406   -6.6547 C.3       12 UNK         0.0240 
     16 S16        27.7978   -4.9513   -6.7402 S.3       12 UNK        -0.2522 
     17 C17        27.3504   -3.4953   -7.7448 C.3       12 UNK        -0.0967 
     18 CA         26.1711   -2.7043   -7.1145 C.3       5 UNK         0.0660 
     19 N          26.5460   -1.9801   -5.8908 N.am      5 UNK        -0.4015 
     20 C          27.3121   -0.8814   -5.8068 C.2       4 UNK         0.4946 
     21 O          27.8923   -0.3735   -6.7679 O.2       4 UNK        -0.5353 
     22 CA         27.4044   -0.2167   -4.4162 C.3       4 UNK         0.0277 
     23 CB         27.8625    1.2558   -4.4826 C.3       4 UNK        -0.1981 
     24 N          26.1753   -0.3166   -3.6148 N.am      4 UNK        -0.4209 
     25 C          24.9373    0.0685   -3.9713 C.2       3 UNK         0.4942 
     26 O          24.6663    0.5255   -5.0826 O.2       3 UNK        -0.5208 
     27 CA         23.7940   -0.1245   -2.9570 C.3       3 UNK         0.0250 
     28 CB         22.7814   -1.1576   -3.4799 C.3       3 UNK        -0.1990 
     29 N          24.2643   -0.5420   -1.6332 N.am      3 UNK        -0.4232 
     30 C          24.6698    0.3031   -0.6731 C.2       2 UNK         0.4993 
     31 O          24.6031    1.5288   -0.7696 O.2       2 UNK        -0.5286 
     32 CA         25.2809   -0.3130    0.6016 C.3       2 UNK         0.0209 
     33 CB         24.2168   -0.4318    1.7047 C.3       2 UNK        -0.1931 
     34 N          25.9085   -1.6236    0.3913 N.am      2 UNK        -0.4546 
     35 C          26.9429   -1.8499   -0.4304 C.2       1 UNK         0.5154 
     36 O          27.5018   -0.9632   -1.0783 O.2       1 UNK        -0.5181 
     37 C          25.4294   -1.7892   -8.1196 C.2       5 UNK         0.5014 
     38 O          25.7107   -1.8285   -9.3180 O.2       5 UNK        -0.5248 
     39 N          24.4937   -0.9793   -7.5964 N.am      6 UNK        -0.4434 
     40 CA         23.7338    0.0712   -8.2843 C.3       6 UNK         0.0363 
     41 CB         22.8458   -0.5060   -9.4084 C.3       6 UNK        -0.1936 
     42 C          24.6503    1.2190   -8.7471 C.2       6 UNK         0.5081 
     43 O          24.5394    1.6780   -9.8853 O.2       6 UNK        -0.5248 
     44 N          25.5386    1.6498   -7.8370 N.am      7 UNK        -0.4718 
     45 CA         26.5710    2.6793   -8.0103 C.3       7 UNK         0.0273 
     46 CB         25.9265    4.0775   -8.1169 C.3       7 UNK        -0.1935 
     47 C          27.5299    2.3667   -9.1752 C.2       7 UNK         0.5018 
     48 O          27.6767    3.1775  -10.0934 O.2       7 UNK        -0.5186 
     49 N          28.1702    1.1910   -9.1196 N.am      8 UNK        -0.4240 
     50 CA         29.0936    0.6644  -10.1318 C.3       8 UNK         0.0235 
     51 CB         29.2229   -0.8582   -9.9352 C.3       8 UNK        -0.2000 
     52 C          30.4683    1.3667  -10.1336 C.2       8 UNK         0.4941 
     53 O          31.4977    0.6943  -10.0473 O.2       8 UNK        -0.5273 
     54 N          30.4684    2.7043  -10.2259 N.am      9 UNK        -0.4262 
     55 CA         31.6316    3.5988  -10.1816 C.3       9 UNK         0.0264 
     56 CB         32.4451    3.4845  -11.4916 C.3       9 UNK        -0.1955 
     57 C          32.4571    3.3778   -8.8970 C.2       9 UNK         0.5031 
     58 O          31.8776    3.3574   -7.8089 O.2       9 UNK        -0.5390 
     59 N          33.7731    3.1695   -9.0293 N.am      10 UNK        -0.4204 
     60 CA         34.6894    2.8161   -7.9409 C.3       10 UNK         0.0237 
     61 CB         36.0994    3.3290   -8.2923 C.3       10 UNK        -0.1985 
     62 C          34.6632    1.3020   -7.6363 C.2       10 UNK         0.4970 
     63 O          35.7227    0.6802   -7.5364 O.2       10 UNK        -0.4914 
     64 N          33.4542    0.7417   -7.5039 N.am      11 UNK        -0.4285 
     65 CA         33.1647   -0.6779   -7.2439 C.3       11 UNK         0.1007 
     66 C          33.6777   -1.6277   -8.3666 C.2       11 UNK         0.5703 
     67 N          33.4107   -1.3115   -9.6264 N.am      11 UNK        -0.7361 
     68 O          34.3097   -2.6504   -8.1095 O.2       11 UNK        -0.4986 
     69 C69        33.5798   -1.1335   -5.8151 C.3       12 UNK        -0.0947 
     70 S70        32.8839   -0.1061   -4.4749 S.3       12 UNK        -0.2240 
     71 C71        31.1021   -0.4775   -4.5675 C.3       12 UNK         0.0194 
     72 H72        26.3861   -4.7988   -4.2178 H         1 UNK         0.0906 
     73 H73        24.8222   -3.9815   -4.3433 H         1 UNK         0.0906 
     74 H74        24.9390   -5.5492   -3.5493 H         1 UNK         0.0906 
     75 H75        27.6939   -4.2003   -2.4972 H         1 UNK         0.3140 
     76 H76        26.8850   -3.9253    0.1331 H         1 UNK         0.1085 
     77 H77        29.4491   -2.7104   -0.9909 H         1 UNK         0.0836 
     78 H78        29.1640   -3.2682    0.6298 H         1 UNK         0.0836 
     79 H79        31.7134   -4.1216   -1.1704 H         1 UNK         0.0731 
     80 H80        31.5839   -5.6416   -2.0115 H         1 UNK         0.0731 
     81 H81        31.3890   -2.0678   -2.3813 H         1 UNK         0.1312 
     82 H82        30.1728   -2.1791   -6.4886 H         1 UNK         0.1406 
     83 H83        30.0953   -5.7639   -4.1345 H         1 UNK         0.1631 
     84 H84        30.0062   -4.4060   -7.5739 H         1 UNK         0.0717 
     85 H85        30.0152   -5.8525   -6.6064 H         1 UNK         0.0717 
     86 H86        28.2139   -2.8469   -7.8921 H         1 UNK         0.0934 
     87 H87        27.0877   -3.8765   -8.7333 H         1 UNK         0.0934 
     88 H88        25.4179   -3.4339   -6.8125 H         1 UNK         0.0739 
     89 H89        26.1250   -2.3129   -5.0385 H         1 UNK         0.3093 
     90 H90        28.1664   -0.7772   -3.8732 H         1 UNK         0.0818 
     91 H91        28.0811    1.6393   -3.4860 H         1 UNK         0.0819 
     92 H92        28.7686    1.3747   -5.0769 H         1 UNK         0.0819 
     93 H93        27.0976    1.8957   -4.9204 H         1 UNK         0.0819 
     94 H94        26.3226   -0.6405   -2.6638 H         1 UNK         0.3041 
     95 H95        23.2785    0.8344   -2.8702 H         1 UNK         0.0784 
     96 H96        22.3668   -0.8498   -4.4409 H         1 UNK         0.0793 
     97 H97        23.2346   -2.1389   -3.6192 H         1 UNK         0.0793 
     98 H98        21.9438   -1.2723   -2.7916 H         1 UNK         0.0793 
     99 H99        24.3542   -1.5431   -1.4773 H         1 UNK         0.3024 
    100 H100       26.0584    0.3732    0.9453 H         1 UNK         0.1171 
    101 H101       24.6530   -0.7754    2.6429 H         1 UNK         0.0786 
    102 H102       23.7495    0.5342    1.9021 H         1 UNK         0.0786 
    103 H103       23.4233   -1.1269    1.4271 H         1 UNK         0.0786 
    104 H104       25.4689   -2.4114    0.8466 H         1 UNK         0.2977 
    105 H105       24.3985   -0.9594   -6.5882 H         1 UNK         0.3127 
    106 H106       23.0680    0.5022   -7.5348 H         1 UNK         0.0770 
    107 H107       23.4366   -0.8915  -10.2396 H         1 UNK         0.0814 
    108 H108       22.1860    0.2624   -9.8128 H         1 UNK         0.0814 
    109 H109       22.2144   -1.3144   -9.0404 H         1 UNK         0.0814 
    110 H110       25.5152    1.2015   -6.9270 H         1 UNK         0.2983 
    111 H111       27.1827    2.6688   -7.1083 H         1 UNK         0.0947 
    112 H112       26.6891    4.8560   -8.1613 H         1 UNK         0.0806 
    113 H113       25.2968    4.2902   -7.2531 H         1 UNK         0.0806 
    114 H114       25.3116    4.1742   -9.0123 H         1 UNK         0.0806 
    115 H115       28.0182    0.5992   -8.3025 H         1 UNK         0.3000 
    116 H116       28.6514    0.8350  -11.1155 H         1 UNK         0.0850 
    117 H117       28.2533   -1.3497  -10.0062 H         1 UNK         0.0810 
    118 H118       29.6533   -1.1002   -8.9628 H         1 UNK         0.0810 
    119 H119       29.8642   -1.3022  -10.6976 H         1 UNK         0.0810 
    120 H120       29.5563    3.1541  -10.2583 H         1 UNK         0.3040 
    121 H121       31.2388    4.6147  -10.1196 H         1 UNK         0.0766 
    122 H122       32.8868    2.4951  -11.6183 H         1 UNK         0.0812 
    123 H123       33.2489    4.2211  -11.5281 H         1 UNK         0.0812 
    124 H124       31.8111    3.6703  -12.3588 H         1 UNK         0.0812 
    125 H125       34.1577    3.1523   -9.9630 H         1 UNK         0.3205 
    126 H126       34.3721    3.3266   -7.0290 H         1 UNK         0.0754 
    127 H127       36.4967    2.8409   -9.1832 H         1 UNK         0.0769 
    128 H128       36.7993    3.1416   -7.4768 H         1 UNK         0.0769 
    129 H129       36.0970    4.4045   -8.4711 H         1 UNK         0.0769 
    130 H130       32.6468    1.3399   -7.6268 H         1 UNK         0.2981 
    131 H131       32.0801   -0.7639   -7.3016 H         1 UNK         0.0541 
    132 H132       33.7331   -1.9089  -10.3697 H         1 UNK         0.3459 
    133 H133       32.8189   -0.5077   -9.8347 H         1 UNK         0.3459 
    134 H134       34.6661   -1.1151   -5.7157 H         1 UNK         0.0612 
    135 H135       33.2854   -2.1696   -5.6416 H         1 UNK         0.0612 
    136 H136       30.6998   -0.0762   -5.4986 H         1 UNK         0.0624 
    137 H137       30.5964    0.0563   -3.7620 H         1 UNK         0.0624 
@<TRIPOS>BOND
     1    1    2 1    
     2    1   72 1    
     3    1   73 1    
     4    1   74 1    
     5    2    3 2    
     6    2    4 am   BACKBONE|DICT|INTERRES
     7    4    5 1    
     8    4   75 1    
     9    5    6 1    
    10    5   35 1    
    11    5   76 1    
    12    6    7 1    
    13    6   77 1    
    14    6   78 1    
    15    7    8 1    
    16    8    9 1    
    17    8   79 1    
    18    8   80 1    
    19    9   10 ar   
    20    9   14 ar   
    21   10   11 ar   
    22   10   81 1    
    23   11   12 ar   
    24   11   71 1    
    25   12   13 ar   
    26   12   82 1    
    27   13   14 ar   
    28   13   15 1    
    29   14   83 1    
    30   15   16 1    
    31   15   84 1    
    32   15   85 1    
    33   16   17 1    
    34   17   18 1    
    35   17   86 1    
    36   17   87 1    
    37   18   19 1    
    38   18   37 1    
    39   18   88 1    
    40   19   20 am   BACKBONE|DICT|INTERRES
    41   19   89 1    
    42   20   21 2    
    43   20   22 1    
    44   22   23 1    
    45   22   24 1    
    46   22   90 1    
    47   23   91 1    
    48   23   92 1    
    49   23   93 1    
    50   24   25 am   BACKBONE|DICT|INTERRES
    51   24   94 1    
    52   25   26 2    
    53   25   27 1    
    54   27   28 1    
    55   27   29 1    
    56   27   95 1    
    57   28   96 1    
    58   28   97 1    
    59   28   98 1    
    60   29   30 am   BACKBONE|DICT|INTERRES
    61   29   99 1    
    62   30   31 2    
    63   30   32 1    
    64   32   33 1    
    65   32   34 1    
    66   32  100 1    
    67   33  101 1    
    68   33  102 1    
    69   33  103 1    
    70   34   35 am   BACKBONE|DICT|INTERRES
    71   34  104 1    
    72   35   36 2    
    73   37   38 2    
    74   37   39 am   BACKBONE|DICT|INTERRES
    75   39   40 1    
    76   39  105 1    
    77   40   41 1    
    78   40   42 1    
    79   40  106 1    
    80   41  107 1    
    81   41  108 1    
    82   41  109 1    
    83   42   43 2    
    84   42   44 am   BACKBONE|DICT|INTERRES
    85   44   45 1    
    86   44  110 1    
    87   45   46 1    
    88   45   47 1    
    89   45  111 1    
    90   46  112 1    
    91   46  113 1    
    92   46  114 1    
    93   47   48 2    
    94   47   49 am   BACKBONE|DICT|INTERRES
    95   49   50 1    
    96   49  115 1    
    97   50   51 1    
    98   50   52 1    
    99   50  116 1    
   100   51  117 1    
   101   51  118 1    
   102   51  119 1    
   103   52   53 2    
   104   52   54 am   BACKBONE|DICT|INTERRES
   105   54   55 1    
   106   54  120 1    
   107   55   56 1    
   108   55   57 1    
   109   55  121 1    
   110   56  122 1    
   111   56  123 1    
   112   56  124 1    
   113   57   58 2    
   114   57   59 am   BACKBONE|DICT|INTERRES
   115   59   60 1    
   116   59  125 1    
   117   60   61 1    
   118   60   62 1    
   119   60  126 1    
   120   61  127 1    
   121   61  128 1    
   122   61  129 1    
   123   62   63 2    
   124   62   64 am   BACKBONE|DICT|INTERRES
   125   64   65 1    
   126   64  130 1    
   127   65   66 1    
   128   65   69 1    
   129   65  131 1    
   130   66   67 am   BACKBONE|DICT|INTERRES
   131   66   68 2    
   132   67  132 1    
   133   67  133 1    
   134   69   70 1    
   135   69  134 1    
   136   69  135 1    
   137   70   71 1    
   138   71  136 1    
   139   71  137 1    
@<TRIPOS>SUBSTRUCTURE
     1 UNK         1 GROUP             0       ****    0 ROOT    
