@<TRIPOS>MOLECULE
3R137
137   139    1
SMALL
USER_CHARGES


@<TRIPOS>ATOM
      1 CA         23.8419   -5.9296   -3.7402 C.3       0 UNK        -0.2020 
      2 C          24.5779   -5.0555   -2.7357 C.2       0 UNK         0.4855 
      3 O          23.9796   -4.1430   -2.1636 O.2       0 UNK        -0.5197 
      4 N          25.8710   -5.3319   -2.5162 N.am      1 UNK        -0.4892 
      5 CA         26.7606   -4.6088   -1.6001 C.3       1 UNK         0.0835 
      6 C6         28.1518   -5.2903   -1.5317 C.3       12 UNK        -0.0855 
      7 S7         29.1127   -4.7889   -0.0619 S.3       12 UNK        -0.2931 
      8 C8         30.8211   -4.7349   -0.7170 C.3       12 UNK         0.0378 
      9 C9         31.0206   -3.7350   -1.8542 C.ar      12 UNK        -0.0802 
     10 C10        31.8055   -4.0806   -2.9599 C.ar      12 UNK        -0.0944 
     11 C11        31.9686   -3.1868   -4.0234 C.ar      12 UNK        -0.0787 
     12 C12        31.3286   -1.9455   -3.9838 C.ar      12 UNK        -0.0862 
     13 C13        30.5636   -1.5736   -2.8717 C.ar      12 UNK        -0.0733 
     14 C14        30.4280   -2.4693   -1.8089 C.ar      12 UNK        -0.0832 
     15 C15        29.8052   -0.2534   -2.8113 C.3       12 UNK         0.0240 
     16 S16        30.5773    1.1149   -3.7317 S.3       12 UNK        -0.2522 
     17 C17        29.1231    2.1763   -4.0047 C.3       12 UNK        -0.0967 
     18 CA         28.4714    1.8984   -5.3811 C.3       5 UNK         0.0660 
     19 N          27.8584    0.5706   -5.4679 N.am      5 UNK        -0.4015 
     20 C          28.0689   -0.3171   -6.4498 C.2       4 UNK         0.4946 
     21 O          28.9246   -0.1776   -7.3249 O.2       4 UNK        -0.5353 
     22 CA         27.1862   -1.5815   -6.4799 C.3       4 UNK         0.0277 
     23 CB         28.0343   -2.8480   -6.2771 C.3       4 UNK        -0.1981 
     24 N          26.1098   -1.5704   -5.4866 N.am      4 UNK        -0.4209 
     25 C          24.9641   -0.8801   -5.6025 C.2       3 UNK         0.4942 
     26 O          24.6733   -0.1948   -6.5809 O.2       3 UNK        -0.5208 
     27 CA         23.9962   -0.9066   -4.4040 C.3       3 UNK         0.0250 
     28 CB         22.9149   -1.9769   -4.6119 C.3       3 UNK        -0.1990 
     29 N          24.6581   -1.1165   -3.1128 N.am      3 UNK        -0.4232 
     30 C          25.6083   -0.3159   -2.6053 C.2       2 UNK         0.4993 
     31 O          25.9961    0.7145   -3.1621 O.2       2 UNK        -0.5286 
     32 CA         26.2936   -0.7717   -1.3033 C.3       2 UNK         0.0209 
     33 CB         25.6014   -0.1328   -0.0898 C.3       2 UNK        -0.1931 
     34 N          26.3599   -2.2286   -1.1146 N.am      2 UNK        -0.4546 
     35 C          26.8524   -3.1181   -1.9917 C.2       1 UNK         0.5154 
     36 O          27.3055   -2.8106   -3.0952 O.2       1 UNK        -0.5181 
     37 C          27.4201    2.9704   -5.7121 C.2       5 UNK         0.5014 
     38 O          27.7546    3.9395   -6.3947 O.2       5 UNK        -0.5248 
     39 N          26.1754    2.7872   -5.2381 N.am      6 UNK        -0.4434 
     40 CA         25.0413    3.6803   -5.5045 C.3       6 UNK         0.0363 
     41 CB         23.8344    3.2423   -4.6607 C.3       6 UNK        -0.1936 
     42 C          24.6564    3.7578   -6.9943 C.2       6 UNK         0.5081 
     43 O          24.2667    4.8283   -7.4622 O.2       6 UNK        -0.5248 
     44 N          24.7949    2.6378   -7.7102 N.am      7 UNK        -0.4718 
     45 CA         24.6981    2.5335   -9.1629 C.3       7 UNK         0.0273 
     46 CB         23.4150    1.7680   -9.5253 C.3       7 UNK        -0.1935 
     47 C          25.9387    1.7859   -9.6678 C.2       7 UNK         0.5018 
     48 O          26.5678    1.0642   -8.8943 O.2       7 UNK        -0.5186 
     49 N          26.2758    1.9654  -10.9517 N.am      8 UNK        -0.4240 
     50 CA         27.3861    1.3449  -11.6976 C.3       8 UNK         0.0235 
     51 CB         27.2561   -0.1919  -11.7300 C.3       8 UNK        -0.2000 
     52 C          28.8066    1.7606  -11.2603 C.2       8 UNK         0.4941 
     53 O          29.6560    1.9357  -12.1347 O.2       8 UNK        -0.5273 
     54 N          29.0384    1.9174   -9.9487 N.am      9 UNK        -0.4262 
     55 CA         30.3064    2.2598   -9.2907 C.3       9 UNK         0.0264 
     56 CB         30.7709    3.6808   -9.6758 C.3       9 UNK        -0.1955 
     57 C          31.3801    1.1806   -9.5245 C.2       9 UNK         0.5031 
     58 O          32.4344    1.4575  -10.1027 O.2       9 UNK        -0.5390 
     59 N          31.0683   -0.0460   -9.0915 N.am      10 UNK        -0.4204 
     60 CA         31.9312   -1.2207   -9.2070 C.3       10 UNK         0.0237 
     61 CB         31.0827   -2.4809   -8.9782 C.3       10 UNK        -0.1985 
     62 C          33.0994   -1.1836   -8.2076 C.2       10 UNK         0.4970 
     63 O          32.9977   -0.5367   -7.1641 O.2       10 UNK        -0.4914 
     64 N          34.1639   -1.9187   -8.5541 N.am      11 UNK        -0.4285 
     65 CA         35.3982   -2.1661   -7.7849 C.3       11 UNK         0.1007 
     66 C          36.2360   -0.9223   -7.3511 C.2       11 UNK         0.5703 
     67 N          35.9501    0.2775   -7.8417 N.am      11 UNK        -0.7361 
     68 O          37.2011   -1.0541   -6.6015 O.2       11 UNK        -0.4986 
     69 C69        35.2293   -3.2611   -6.6867 C.3       12 UNK        -0.0947 
     70 S70        34.4504   -2.7287   -5.1234 S.3       12 UNK        -0.2240 
     71 C71        32.8316   -3.5526   -5.2209 C.3       12 UNK         0.0194 
     72 H72        22.9015   -6.2790   -3.3148 H         1 UNK         0.0906 
     73 H73        23.6176   -5.3637   -4.6433 H         1 UNK         0.0906 
     74 H74        24.4273   -6.8039   -4.0244 H         1 UNK         0.0906 
     75 H75        26.3059   -6.0756   -3.0435 H         1 UNK         0.3140 
     76 H76        26.3029   -4.6789   -0.6108 H         1 UNK         0.1085 
     77 H77        28.7188   -5.1050   -2.4463 H         1 UNK         0.0836 
     78 H78        28.0336   -6.3734   -1.4717 H         1 UNK         0.0836 
     79 H79        31.0960   -5.7403   -1.0403 H         1 UNK         0.0731 
     80 H80        31.5000   -4.4758    0.0963 H         1 UNK         0.0731 
     81 H81        32.2879   -5.0480   -2.9964 H         1 UNK         0.1312 
     82 H82        31.4369   -1.2728   -4.8243 H         1 UNK         0.1406 
     83 H83        29.8240   -2.1937   -0.9553 H         1 UNK         0.1631 
     84 H84        29.6832    0.0665   -1.7755 H         1 UNK         0.0717 
     85 H85        28.8067   -0.4415   -3.2020 H         1 UNK         0.0717 
     86 H86        28.4070    2.0522   -3.1899 H         1 UNK         0.0934 
     87 H87        29.4677    3.2110   -3.9482 H         1 UNK         0.0934 
     88 H88        29.2545    1.9895   -6.1344 H         1 UNK         0.0739 
     89 H89        27.1506    0.3638   -4.7738 H         1 UNK         0.3093 
     90 H90        26.7320   -1.6303   -7.4721 H         1 UNK         0.0818 
     91 H91        28.6608   -2.7787   -5.3865 H         1 UNK         0.0819 
     92 H92        27.4119   -3.7377   -6.1811 H         1 UNK         0.0819 
     93 H93        28.6920   -3.0104   -7.1288 H         1 UNK         0.0819 
     94 H94        26.3036   -2.0712   -4.6229 H         1 UNK         0.3041 
     95 H95        23.5024    0.0644   -4.3573 H         1 UNK         0.0784 
     96 H96        22.3521   -1.7884   -5.5273 H         1 UNK         0.0793 
     97 H97        23.3483   -2.9726   -4.6968 H         1 UNK         0.0793 
     98 H98        22.2006   -1.9896   -3.7884 H         1 UNK         0.0793 
     99 H99        24.4220   -1.9655   -2.6114 H         1 UNK         0.3024 
    100 H100       27.3186   -0.4030   -1.3360 H         1 UNK         0.1171 
    101 H101       26.1401   -0.3460    0.8337 H         1 UNK         0.0786 
    102 H102       25.5568    0.9527   -0.1919 H         1 UNK         0.0786 
    103 H103       24.5778   -0.4916    0.0265 H         1 UNK         0.0786 
    104 H104       25.9749   -2.5788   -0.2489 H         1 UNK         0.2977 
    105 H105       25.9981    2.0081   -4.6111 H         1 UNK         0.3127 
    106 H106       25.3343    4.6830   -5.1862 H         1 UNK         0.0770 
    107 H107       23.4524    2.2741   -4.9826 H         1 UNK         0.0814 
    108 H108       23.0172    3.9587   -4.7538 H         1 UNK         0.0814 
    109 H109       24.0874    3.1728   -3.6024 H         1 UNK         0.0814 
    110 H110       25.1327    1.7938   -7.2559 H         1 UNK         0.2983 
    111 H111       24.6790    3.5253   -9.6202 H         1 UNK         0.0947 
    112 H112       23.3078    1.6661  -10.6059 H         1 UNK         0.0806 
    113 H113       22.5292    2.2866   -9.1583 H         1 UNK         0.0806 
    114 H114       23.4145    0.7635   -9.0989 H         1 UNK         0.0806 
    115 H115       25.7109    2.6039  -11.4952 H         1 UNK         0.3000 
    116 H116       27.2703    1.6973  -12.7240 H         1 UNK         0.0850 
    117 H117       28.0105   -0.6310  -12.3841 H         1 UNK         0.0810 
    118 H118       26.2810   -0.5005  -12.1067 H         1 UNK         0.0810 
    119 H119       27.3908   -0.6354  -10.7427 H         1 UNK         0.0810 
    120 H120       28.2722    1.6603   -9.3279 H         1 UNK         0.3040 
    121 H121       30.1049    2.2668   -8.2203 H         1 UNK         0.0766 
    122 H122       30.0019    4.4209   -9.4549 H         1 UNK         0.0812 
    123 H123       31.0185    3.7583  -10.7347 H         1 UNK         0.0812 
    124 H124       31.6626    3.9614   -9.1142 H         1 UNK         0.0812 
    125 H125       30.2195   -0.1551   -8.5325 H         1 UNK         0.3205 
    126 H126       32.3331   -1.2468  -10.2222 H         1 UNK         0.0754 
    127 H127       31.6616   -3.3865   -9.1636 H         1 UNK         0.0769 
    128 H128       30.2158   -2.5069   -9.6389 H         1 UNK         0.0769 
    129 H129       30.7257   -2.5285   -7.9499 H         1 UNK         0.0769 
    130 H130       34.1352   -2.3851   -9.4491 H         1 UNK         0.2981 
    131 H131       36.0469   -2.6239   -8.5326 H         1 UNK         0.0541 
    132 H132       36.5108    1.0689   -7.5689 H         1 UNK         0.3459 
    133 H133       35.1505    0.4051   -8.4414 H         1 UNK         0.3459 
    134 H134       34.6772   -4.1093   -7.0937 H         1 UNK         0.0612 
    135 H135       36.2106   -3.6616   -6.4272 H         1 UNK         0.0612 
    136 H136       32.9775   -4.6325   -5.2750 H         1 UNK         0.0624 
    137 H137       32.3264   -3.2586   -6.1413 H         1 UNK         0.0624 
@<TRIPOS>BOND
     1    1    2 1    
     2    1   72 1    
     3    1   73 1    
     4    1   74 1    
     5    2    3 2    
     6    2    4 am   BACKBONE|DICT|INTERRES
     7    4    5 1    
     8    4   75 1    
     9    5    6 1    
    10    5   35 1    
    11    5   76 1    
    12    6    7 1    
    13    6   77 1    
    14    6   78 1    
    15    7    8 1    
    16    8    9 1    
    17    8   79 1    
    18    8   80 1    
    19    9   10 ar   
    20    9   14 ar   
    21   10   11 ar   
    22   10   81 1    
    23   11   12 ar   
    24   11   71 1    
    25   12   13 ar   
    26   12   82 1    
    27   13   14 ar   
    28   13   15 1    
    29   14   83 1    
    30   15   16 1    
    31   15   84 1    
    32   15   85 1    
    33   16   17 1    
    34   17   18 1    
    35   17   86 1    
    36   17   87 1    
    37   18   19 1    
    38   18   37 1    
    39   18   88 1    
    40   19   20 am   BACKBONE|DICT|INTERRES
    41   19   89 1    
    42   20   21 2    
    43   20   22 1    
    44   22   23 1    
    45   22   24 1    
    46   22   90 1    
    47   23   91 1    
    48   23   92 1    
    49   23   93 1    
    50   24   25 am   BACKBONE|DICT|INTERRES
    51   24   94 1    
    52   25   26 2    
    53   25   27 1    
    54   27   28 1    
    55   27   29 1    
    56   27   95 1    
    57   28   96 1    
    58   28   97 1    
    59   28   98 1    
    60   29   30 am   BACKBONE|DICT|INTERRES
    61   29   99 1    
    62   30   31 2    
    63   30   32 1    
    64   32   33 1    
    65   32   34 1    
    66   32  100 1    
    67   33  101 1    
    68   33  102 1    
    69   33  103 1    
    70   34   35 am   BACKBONE|DICT|INTERRES
    71   34  104 1    
    72   35   36 2    
    73   37   38 2    
    74   37   39 am   BACKBONE|DICT|INTERRES
    75   39   40 1    
    76   39  105 1    
    77   40   41 1    
    78   40   42 1    
    79   40  106 1    
    80   41  107 1    
    81   41  108 1    
    82   41  109 1    
    83   42   43 2    
    84   42   44 am   BACKBONE|DICT|INTERRES
    85   44   45 1    
    86   44  110 1    
    87   45   46 1    
    88   45   47 1    
    89   45  111 1    
    90   46  112 1    
    91   46  113 1    
    92   46  114 1    
    93   47   48 2    
    94   47   49 am   BACKBONE|DICT|INTERRES
    95   49   50 1    
    96   49  115 1    
    97   50   51 1    
    98   50   52 1    
    99   50  116 1    
   100   51  117 1    
   101   51  118 1    
   102   51  119 1    
   103   52   53 2    
   104   52   54 am   BACKBONE|DICT|INTERRES
   105   54   55 1    
   106   54  120 1    
   107   55   56 1    
   108   55   57 1    
   109   55  121 1    
   110   56  122 1    
   111   56  123 1    
   112   56  124 1    
   113   57   58 2    
   114   57   59 am   BACKBONE|DICT|INTERRES
   115   59   60 1    
   116   59  125 1    
   117   60   61 1    
   118   60   62 1    
   119   60  126 1    
   120   61  127 1    
   121   61  128 1    
   122   61  129 1    
   123   62   63 2    
   124   62   64 am   BACKBONE|DICT|INTERRES
   125   64   65 1    
   126   64  130 1    
   127   65   66 1    
   128   65   69 1    
   129   65  131 1    
   130   66   67 am   BACKBONE|DICT|INTERRES
   131   66   68 2    
   132   67  132 1    
   133   67  133 1    
   134   69   70 1    
   135   69  134 1    
   136   69  135 1    
   137   70   71 1    
   138   71  136 1    
   139   71  137 1    
@<TRIPOS>SUBSTRUCTURE
     1 UNK         1 GROUP             0       ****    0 ROOT    
