@<TRIPOS>MOLECULE
3R137
137   139    1
SMALL
USER_CHARGES


@<TRIPOS>ATOM
      1 CA         22.7650   -4.4537   -7.4772 C.3       0 UNK        -0.2020 
      2 C          23.2434   -4.8556   -6.0901 C.2       0 UNK         0.4855 
      3 O          22.5737   -5.6393   -5.4168 O.2       0 UNK        -0.5197 
      4 N          24.3944   -4.3265   -5.6568 N.am      1 UNK        -0.4892 
      5 CA         24.9940   -4.5851   -4.3413 C.3       1 UNK         0.0835 
      6 C6         26.4510   -4.0688   -4.2586 C.3       12 UNK        -0.0855 
      7 S7         27.6001   -4.9583   -5.3583 S.3       12 UNK        -0.2931 
      8 C8         29.0382   -5.1981   -4.2625 C.3       12 UNK         0.0378 
      9 C9         29.8405   -3.9167   -4.0552 C.ar      12 UNK        -0.0802 
     10 C10        30.9774   -3.6679   -4.8299 C.ar      12 UNK        -0.0944 
     11 C11        31.7573   -2.5293   -4.6050 C.ar      12 UNK        -0.0787 
     12 C12        31.3846   -1.6259   -3.6045 C.ar      12 UNK        -0.0862 
     13 C13        30.2322   -1.8433   -2.8401 C.ar      12 UNK        -0.0733 
     14 C14        29.4786   -3.0004   -3.0615 C.ar      12 UNK        -0.0832 
     15 C15        29.7999   -0.8724   -1.7405 C.3       12 UNK         0.0240 
     16 S16        30.0264    0.8987   -2.1347 S.3       12 UNK        -0.2522 
     17 C17        29.2056    1.0997   -3.7543 C.3       12 UNK        -0.0967 
     18 CA         27.7325    0.6074   -3.8146 C.3       5 UNK         0.0660 
     19 N          26.8253    1.2216   -2.8422 N.am      5 UNK        -0.4015 
     20 C          26.5444    2.5251   -2.6900 C.2       4 UNK         0.4946 
     21 O          27.0994    3.4250   -3.3219 O.2       4 UNK        -0.5353 
     22 CA         25.4341    2.9100   -1.6860 C.3       4 UNK         0.0277 
     23 CB         24.2898    3.6491   -2.4025 C.3       4 UNK        -0.1981 
     24 N          24.8657    1.7710   -0.9594 N.am      4 UNK        -0.4209 
     25 C          25.4669    1.1058    0.0361 C.2       3 UNK         0.4942 
     26 O          26.5355    1.4519    0.5395 O.2       3 UNK        -0.5208 
     27 CA         24.7844   -0.1843    0.5334 C.3       3 UNK         0.0250 
     28 CB         24.0625    0.0742    1.8663 C.3       3 UNK        -0.1990 
     29 N          23.8422   -0.8091   -0.4090 N.am      3 UNK        -0.4232 
     30 C          24.1321   -1.2339   -1.6473 C.2       2 UNK         0.4993 
     31 O          25.2202   -1.0493   -2.2025 O.2       2 UNK        -0.5286 
     32 CA         22.9956   -1.9286   -2.4187 C.3       2 UNK         0.0209 
     33 CB         22.0861   -0.8832   -3.0848 C.3       2 UNK        -0.1931 
     34 N          23.5391   -2.8175   -3.4476 N.am      2 UNK        -0.4546 
     35 C          24.1860   -3.9615   -3.1854 C.2       1 UNK         0.5154 
     36 O          24.2010   -4.4981   -2.0758 O.2       1 UNK        -0.5181 
     37 C          27.1304    0.6990   -5.2273 C.2       5 UNK         0.5014 
     38 O          27.7363    1.2811   -6.1298 O.2       5 UNK        -0.5248 
     39 N          25.9348    0.1134   -5.3918 N.am      6 UNK        -0.4434 
     40 CA         25.2909   -0.0933   -6.6908 C.3       6 UNK         0.0363 
     41 CB         23.7921   -0.3768   -6.4877 C.3       6 UNK        -0.1936 
     42 C          26.0042   -1.2382   -7.4288 C.2       6 UNK         0.5081 
     43 O          25.6116   -2.3966   -7.2880 O.2       6 UNK        -0.5248 
     44 N          27.0822   -0.8947   -8.1346 N.am      7 UNK        -0.4718 
     45 CA         28.0112   -1.8143   -8.7829 C.3       7 UNK         0.0273 
     46 CB         29.0633   -2.2689   -7.7496 C.3       7 UNK        -0.1935 
     47 C          28.6324   -1.1235  -10.0089 C.2       7 UNK         0.5018 
     48 O          28.0740   -0.1422  -10.5090 O.2       7 UNK        -0.5186 
     49 N          29.7700   -1.6489  -10.4822 N.am      8 UNK        -0.4240 
     50 CA         30.5727   -1.0756  -11.5657 C.3       8 UNK         0.0235 
     51 CB         31.6682   -2.0832  -11.9541 C.3       8 UNK        -0.2000 
     52 C          31.2070    0.2683  -11.1661 C.2       8 UNK         0.4941 
     53 O          31.4311    0.5125   -9.9790 O.2       8 UNK        -0.5273 
     54 N          31.5433    1.0920  -12.1698 N.am      9 UNK        -0.4262 
     55 CA         32.1316    2.4314  -12.0127 C.3       9 UNK         0.0264 
     56 CB         32.3403    3.0616  -13.3992 C.3       9 UNK        -0.1955 
     57 C          33.4415    2.4742  -11.2018 C.2       9 UNK         0.5031 
     58 O          33.7148    3.4838  -10.5506 O.2       9 UNK        -0.5390 
     59 N          34.1985    1.3675  -11.2117 N.am      10 UNK        -0.4204 
     60 CA         35.3961    1.1473  -10.3960 C.3       10 UNK         0.0237 
     61 CB         36.0319   -0.1955  -10.7919 C.3       10 UNK        -0.1985 
     62 C          35.1413    1.1917   -8.8756 C.2       10 UNK         0.4970 
     63 O          36.0745    1.4880   -8.1281 O.2       10 UNK        -0.4914 
     64 N          33.9026    0.9156   -8.4449 N.am      11 UNK        -0.4285 
     65 CA         33.4581    1.0381   -7.0488 C.3       11 UNK         0.1007 
     66 C          33.1397    2.5002   -6.6167 C.2       11 UNK         0.5703 
     67 N          33.1591    3.4888   -7.5055 N.am      11 UNK        -0.7361 
     68 O          32.8854    2.7474   -5.4405 O.2       11 UNK        -0.4986 
     69 C69        32.2713    0.0888   -6.7365 C.3       12 UNK        -0.0947 
     70 S70        32.6596   -1.6607   -7.0859 S.3       12 UNK        -0.2240 
     71 C71        33.0217   -2.2991   -5.4215 C.3       12 UNK         0.0194 
     72 H72        22.5887   -5.3407   -8.0850 H         1 UNK         0.0906 
     73 H73        21.8309   -3.8975   -7.4053 H         1 UNK         0.0906 
     74 H74        23.4923   -3.8300   -7.9959 H         1 UNK         0.0906 
     75 H75        24.9166   -3.6946   -6.2669 H         1 UNK         0.3140 
     76 H76        24.9991   -5.6655   -4.1797 H         1 UNK         0.1085 
     77 H77        26.5035   -3.0031   -4.4913 H         1 UNK         0.0836 
     78 H78        26.8092   -4.1759   -3.2344 H         1 UNK         0.0836 
     79 H79        29.6781   -5.9655   -4.7007 H         1 UNK         0.0731 
     80 H80        28.7116   -5.5995   -3.3019 H         1 UNK         0.0731 
     81 H81        31.2682   -4.3701   -5.5994 H         1 UNK         0.1312 
     82 H82        31.9923   -0.7505   -3.4214 H         1 UNK         0.1406 
     83 H83        28.6141   -3.1916   -2.4429 H         1 UNK         0.1631 
     84 H84        30.3713   -1.0982   -0.8395 H         1 UNK         0.0717 
     85 H85        28.7519   -1.0297   -1.4801 H         1 UNK         0.0717 
     86 H86        29.2711    2.1528   -4.0323 H         1 UNK         0.0934 
     87 H87        29.8040    0.5694   -4.4969 H         1 UNK         0.0934 
     88 H88        27.7368   -0.4575   -3.5810 H         1 UNK         0.0739 
     89 H89        26.2733    0.5527   -2.3130 H         1 UNK         0.3093 
     90 H90        25.8815    3.5923   -0.9601 H         1 UNK         0.0818 
     91 H91        23.8117    3.0205   -3.1549 H         1 UNK         0.0819 
     92 H92        23.5239    3.9746   -1.6984 H         1 UNK         0.0819 
     93 H93        24.6567    4.5421   -2.9107 H         1 UNK         0.0819 
     94 H94        23.9838    1.4148   -1.2971 H         1 UNK         0.3041 
     95 H95        25.5813   -0.9090    0.7137 H         1 UNK         0.0784 
     96 H96        24.7411    0.5096    2.6015 H         1 UNK         0.0793 
     97 H97        23.2272    0.7652    1.7453 H         1 UNK         0.0793 
     98 H98        23.6761   -0.8502    2.2960 H         1 UNK         0.0793 
     99 H99        22.9123   -0.9780   -0.0516 H         1 UNK         0.3024 
    100 H100       22.4055   -2.5274   -1.7207 H         1 UNK         0.1171 
    101 H101       21.3106   -1.3561   -3.6878 H         1 UNK         0.0786 
    102 H102       21.5811   -0.2707   -2.3367 H         1 UNK         0.0786 
    103 H103       22.6480   -0.2069   -3.7291 H         1 UNK         0.0786 
    104 H104       23.5814   -2.4623   -4.3897 H         1 UNK         0.2977 
    105 H105       25.5141   -0.3440   -4.5946 H         1 UNK         0.3127 
    106 H106       25.3816    0.8174   -7.2873 H         1 UNK         0.0770 
    107 H107       23.6199   -1.2645   -5.8811 H         1 UNK         0.0814 
    108 H108       23.2979   -0.5414   -7.4460 H         1 UNK         0.0814 
    109 H109       23.2923    0.4650   -6.0087 H         1 UNK         0.0814 
    110 H110       27.3337    0.0844   -8.2001 H         1 UNK         0.2983 
    111 H111       27.4619   -2.6860   -9.1453 H         1 UNK         0.0947 
    112 H112       29.6963   -1.4383   -7.4375 H         1 UNK         0.0806 
    113 H113       29.7096   -3.0548   -8.1403 H         1 UNK         0.0806 
    114 H114       28.5924   -2.6673   -6.8520 H         1 UNK         0.0806 
    115 H115       30.1777   -2.4282   -9.9878 H         1 UNK         0.3000 
    116 H116       29.9174   -0.9109  -12.4238 H         1 UNK         0.0850 
    117 H117       32.2641   -1.7165  -12.7909 H         1 UNK         0.0810 
    118 H118       31.2393   -3.0373  -12.2612 H         1 UNK         0.0810 
    119 H119       32.3523   -2.2738  -11.1256 H         1 UNK         0.0810 
    120 H120       31.3412    0.8028  -13.1166 H         1 UNK         0.3040 
    121 H121       31.4037    3.0375  -11.4693 H         1 UNK         0.0766 
    122 H122       31.3996    3.1479  -13.9433 H         1 UNK         0.0812 
    123 H123       33.0306    2.4775  -14.0092 H         1 UNK         0.0812 
    124 H124       32.7539    4.0676  -13.3126 H         1 UNK         0.0812 
    125 H125       33.8862    0.5915  -11.7762 H         1 UNK         0.3205 
    126 H126       36.1034    1.9458  -10.6291 H         1 UNK         0.0754 
    127 H127       35.3581   -1.0323  -10.6017 H         1 UNK         0.0769 
    128 H128       36.9454   -0.3776  -10.2239 H         1 UNK         0.0769 
    129 H129       36.3016   -0.2125  -11.8481 H         1 UNK         0.0769 
    130 H130       33.1673    0.7024   -9.1129 H         1 UNK         0.2981 
    131 H131       34.2863    0.7240   -6.4109 H         1 UNK         0.0541 
    132 H132       33.3766    3.3165   -8.4796 H         1 UNK         0.3459 
    133 H133       32.9565    4.4262   -7.1976 H         1 UNK         0.3459 
    134 H134       31.9681    0.1849   -5.6940 H         1 UNK         0.0612 
    135 H135       31.3970    0.3678   -7.3260 H         1 UNK         0.0612 
    136 H136       33.5614   -3.2419   -5.5209 H         1 UNK         0.0624 
    137 H137       33.6990   -1.6143   -4.9087 H         1 UNK         0.0624 
@<TRIPOS>BOND
     1    1    2 1    
     2    1   72 1    
     3    1   73 1    
     4    1   74 1    
     5    2    3 2    
     6    2    4 am   BACKBONE|DICT|INTERRES
     7    4    5 1    
     8    4   75 1    
     9    5    6 1    
    10    5   35 1    
    11    5   76 1    
    12    6    7 1    
    13    6   77 1    
    14    6   78 1    
    15    7    8 1    
    16    8    9 1    
    17    8   79 1    
    18    8   80 1    
    19    9   10 ar   
    20    9   14 ar   
    21   10   11 ar   
    22   10   81 1    
    23   11   12 ar   
    24   11   71 1    
    25   12   13 ar   
    26   12   82 1    
    27   13   14 ar   
    28   13   15 1    
    29   14   83 1    
    30   15   16 1    
    31   15   84 1    
    32   15   85 1    
    33   16   17 1    
    34   17   18 1    
    35   17   86 1    
    36   17   87 1    
    37   18   19 1    
    38   18   37 1    
    39   18   88 1    
    40   19   20 am   BACKBONE|DICT|INTERRES
    41   19   89 1    
    42   20   21 2    
    43   20   22 1    
    44   22   23 1    
    45   22   24 1    
    46   22   90 1    
    47   23   91 1    
    48   23   92 1    
    49   23   93 1    
    50   24   25 am   BACKBONE|DICT|INTERRES
    51   24   94 1    
    52   25   26 2    
    53   25   27 1    
    54   27   28 1    
    55   27   29 1    
    56   27   95 1    
    57   28   96 1    
    58   28   97 1    
    59   28   98 1    
    60   29   30 am   BACKBONE|DICT|INTERRES
    61   29   99 1    
    62   30   31 2    
    63   30   32 1    
    64   32   33 1    
    65   32   34 1    
    66   32  100 1    
    67   33  101 1    
    68   33  102 1    
    69   33  103 1    
    70   34   35 am   BACKBONE|DICT|INTERRES
    71   34  104 1    
    72   35   36 2    
    73   37   38 2    
    74   37   39 am   BACKBONE|DICT|INTERRES
    75   39   40 1    
    76   39  105 1    
    77   40   41 1    
    78   40   42 1    
    79   40  106 1    
    80   41  107 1    
    81   41  108 1    
    82   41  109 1    
    83   42   43 2    
    84   42   44 am   BACKBONE|DICT|INTERRES
    85   44   45 1    
    86   44  110 1    
    87   45   46 1    
    88   45   47 1    
    89   45  111 1    
    90   46  112 1    
    91   46  113 1    
    92   46  114 1    
    93   47   48 2    
    94   47   49 am   BACKBONE|DICT|INTERRES
    95   49   50 1    
    96   49  115 1    
    97   50   51 1    
    98   50   52 1    
    99   50  116 1    
   100   51  117 1    
   101   51  118 1    
   102   51  119 1    
   103   52   53 2    
   104   52   54 am   BACKBONE|DICT|INTERRES
   105   54   55 1    
   106   54  120 1    
   107   55   56 1    
   108   55   57 1    
   109   55  121 1    
   110   56  122 1    
   111   56  123 1    
   112   56  124 1    
   113   57   58 2    
   114   57   59 am   BACKBONE|DICT|INTERRES
   115   59   60 1    
   116   59  125 1    
   117   60   61 1    
   118   60   62 1    
   119   60  126 1    
   120   61  127 1    
   121   61  128 1    
   122   61  129 1    
   123   62   63 2    
   124   62   64 am   BACKBONE|DICT|INTERRES
   125   64   65 1    
   126   64  130 1    
   127   65   66 1    
   128   65   69 1    
   129   65  131 1    
   130   66   67 am   BACKBONE|DICT|INTERRES
   131   66   68 2    
   132   67  132 1    
   133   67  133 1    
   134   69   70 1    
   135   69  134 1    
   136   69  135 1    
   137   70   71 1    
   138   71  136 1    
   139   71  137 1    
@<TRIPOS>SUBSTRUCTURE
     1 UNK         1 GROUP             0       ****    0 ROOT    
