@<TRIPOS>MOLECULE
3R137
137   139    1
SMALL
USER_CHARGES


@<TRIPOS>ATOM
      1 CA         30.9654    0.1005    2.8498 C.3       0 UNK        -0.2020 
      2 C          29.7946    0.2883    1.8963 C.2       0 UNK         0.4855 
      3 O          29.2772    1.3994    1.7738 O.2       0 UNK        -0.5197 
      4 N          29.3797   -0.7862    1.2141 N.am      1 UNK        -0.4892 
      5 CA         28.2414   -0.8043    0.2861 C.3       1 UNK         0.0835 
      6 C6         28.2737   -2.0648   -0.6151 C.3       12 UNK        -0.0855 
      7 S7         29.7420   -2.0901   -1.6949 S.3       12 UNK        -0.2931 
      8 C8         29.8797   -3.8625   -2.0958 C.3       12 UNK         0.0378 
      9 C9         30.0146   -4.0927   -3.5953 C.ar      12 UNK        -0.0802 
     10 C10        31.1579   -3.6575   -4.2716 C.ar      12 UNK        -0.0944 
     11 C11        31.3047   -3.8831   -5.6432 C.ar      12 UNK        -0.0787 
     12 C12        30.2960   -4.5571   -6.3418 C.ar      12 UNK        -0.0862 
     13 C13        29.1580   -5.0207   -5.6722 C.ar      12 UNK        -0.0733 
     14 C14        29.0174   -4.7727   -4.3024 C.ar      12 UNK        -0.0832 
     15 C15        28.1171   -5.8643   -6.3972 C.3       12 UNK         0.0240 
     16 S16        26.5871   -4.9453   -6.7542 S.3       12 UNK        -0.2522 
     17 C17        26.8291   -4.4224   -8.4919 C.3       12 UNK        -0.0967 
     18 CA         26.5238   -2.9254   -8.7515 C.3       5 UNK         0.0660 
     19 N          25.2295   -2.5127   -8.2016 N.am      5 UNK        -0.4015 
     20 C          24.6370   -1.3303   -8.4179 C.2       4 UNK         0.4946 
     21 O          25.0788   -0.4663   -9.1743 O.2       4 UNK        -0.5353 
     22 CA         23.3624   -1.0427   -7.6070 C.3       4 UNK         0.0277 
     23 CB         22.1314   -1.6569   -8.2925 C.3       4 UNK        -0.1981 
     24 N          23.4473   -1.5129   -6.2189 N.am      4 UNK        -0.4209 
     25 C          24.3355   -1.0581   -5.3251 C.2       3 UNK         0.4942 
     26 O          25.1772   -0.1904   -5.5733 O.2       3 UNK        -0.5208 
     27 CA         24.3119   -1.7057   -3.9377 C.3       3 UNK         0.0250 
     28 CB         25.0454   -3.0610   -3.9508 C.3       3 UNK        -0.1990 
     29 N          24.9664   -0.7956   -3.0043 N.am      3 UNK        -0.4232 
     30 C          24.8235   -0.8031   -1.6768 C.2       2 UNK         0.4993 
     31 O          24.0954   -1.5903   -1.0665 O.2       2 UNK        -0.5286 
     32 CA         25.6217    0.2584   -0.9054 C.3       2 UNK         0.0209 
     33 CB         24.8572    1.5928   -0.8950 C.3       2 UNK        -0.1931 
     34 N          25.8130   -0.1792    0.4815 N.am      2 UNK        -0.4546 
     35 C          26.8996   -0.7144    1.0576 C.2       1 UNK         0.5154 
     36 O          26.8417   -1.1652    2.2037 O.2       1 UNK        -0.5181 
     37 C          27.6721   -2.0187   -8.2738 C.2       5 UNK         0.5014 
     38 O          28.4797   -1.5869   -9.0963 O.2       5 UNK        -0.5248 
     39 N          27.6924   -1.7169   -6.9680 N.am      6 UNK        -0.4434 
     40 CA         28.6704   -0.8374   -6.3315 C.3       6 UNK         0.0363 
     41 CB         28.4874   -0.8673   -4.8080 C.3       6 UNK        -0.1936 
     42 C          28.5898    0.6007   -6.8564 C.2       6 UNK         0.5081 
     43 O          29.6286    1.2092   -7.1071 O.2       6 UNK        -0.5248 
     44 N          27.3620    1.1034   -7.0414 N.am      7 UNK        -0.4718 
     45 CA         27.0825    2.4069   -7.6412 C.3       7 UNK         0.0273 
     46 CB         25.5936    2.7458   -7.4654 C.3       7 UNK        -0.1935 
     47 C          27.4945    2.4740   -9.1212 C.2       7 UNK         0.5018 
     48 O          28.1445    3.4412   -9.5180 O.2       7 UNK        -0.5186 
     49 N          27.1294    1.4460   -9.9020 N.am      8 UNK        -0.4240 
     50 CA         27.4309    1.3387  -11.3322 C.3       8 UNK         0.0235 
     51 CB         26.6530    0.1616  -11.9426 C.3       8 UNK        -0.2000 
     52 C          28.9324    1.2068  -11.6317 C.2       8 UNK         0.4941 
     53 O          29.4314    1.8978  -12.5209 O.2       8 UNK        -0.5273 
     54 N          29.6258    0.3323  -10.8901 N.am      9 UNK        -0.4262 
     55 CA         31.0636    0.0881  -11.0396 C.3       9 UNK         0.0264 
     56 CB         31.3799   -1.3376  -10.5622 C.3       9 UNK        -0.1955 
     57 C          31.9465    1.1235  -10.3166 C.2       9 UNK         0.5031 
     58 O          33.1577    1.1229  -10.5430 O.2       9 UNK        -0.5390 
     59 N          31.3411    1.9767   -9.4755 N.am      10 UNK        -0.4204 
     60 CA         31.9668    3.0032   -8.6328 C.3       10 UNK         0.0237 
     61 CB         32.6103    4.1136   -9.4911 C.3       10 UNK        -0.1985 
     62 C          32.9301    2.3922   -7.5965 C.2       10 UNK         0.4970 
     63 O          34.0822    2.8173   -7.4875 O.2       10 UNK        -0.4914 
     64 N          32.4298    1.3932   -6.8605 N.am      11 UNK        -0.4285 
     65 CA         33.1633    0.6616   -5.8147 C.3       11 UNK         0.1007 
     66 C          33.3447    1.4531   -4.4871 C.2       11 UNK         0.5703 
     67 N          32.6446    2.5606   -4.2687 N.am      11 UNK        -0.7361 
     68 O          34.1458    1.0588   -3.6430 O.2       11 UNK        -0.4986 
     69 C69        32.5427   -0.7341   -5.5424 C.3       12 UNK        -0.0947 
     70 S70        32.4642   -1.7723   -7.0399 S.3       12 UNK        -0.2240 
     71 C71        32.5813   -3.4520   -6.3537 C.3       12 UNK         0.0194 
     72 H72        31.7884    0.7565    2.5674 H         1 UNK         0.0906 
     73 H73        30.6642    0.3497    3.8669 H         1 UNK         0.0906 
     74 H74        31.3337   -0.9253    2.8470 H         1 UNK         0.0906 
     75 H75        29.8346   -1.6759    1.3600 H         1 UNK         0.3140 
     76 H76        28.3520    0.0835   -0.3369 H         1 UNK         0.1085 
     77 H77        28.2555   -2.9669   -0.0002 H         1 UNK         0.0836 
     78 H78        27.3956   -2.1176   -1.2597 H         1 UNK         0.0836 
     79 H79        30.7531   -4.2734   -1.5874 H         1 UNK         0.0731 
     80 H80        29.0179   -4.4063   -1.7066 H         1 UNK         0.0731 
     81 H81        31.9374   -3.1466   -3.7234 H         1 UNK         0.1312 
     82 H82        30.4152   -4.7510   -7.3990 H         1 UNK         0.1406 
     83 H83        28.1389   -5.1336   -3.7845 H         1 UNK         0.1631 
     84 H84        27.8599   -6.7181   -5.7685 H         1 UNK         0.0717 
     85 H85        28.5278   -6.2908   -7.3133 H         1 UNK         0.0717 
     86 H86        27.8386   -4.6687   -8.8272 H         1 UNK         0.0934 
     87 H87        26.1666   -5.0332   -9.1073 H         1 UNK         0.0934 
     88 H88        26.4590   -2.7922   -9.8337 H         1 UNK         0.0739 
     89 H89        24.7984   -3.1614   -7.5596 H         1 UNK         0.3093 
     90 H90        23.2314    0.0414   -7.5808 H         1 UNK         0.0818 
     91 H91        21.2110   -1.3778   -7.7793 H         1 UNK         0.0819 
     92 H92        22.0442   -1.3061   -9.3220 H         1 UNK         0.0819 
     93 H93        22.1827   -2.7459   -8.3229 H         1 UNK         0.0819 
     94 H94        22.7877   -2.2243   -5.9363 H         1 UNK         0.3041 
     95 H95        23.2718   -1.8463   -3.6356 H         1 UNK         0.0784 
     96 H96        24.5809   -3.7553   -4.6517 H         1 UNK         0.0793 
     97 H97        26.0916   -2.9523   -4.2394 H         1 UNK         0.0793 
     98 H98        25.0214   -3.5361   -2.9700 H         1 UNK         0.0793 
     99 H99        25.5134   -0.0767   -3.4634 H         1 UNK         0.3024 
    100 H100       26.5666    0.4156   -1.4236 H         1 UNK         0.1171 
    101 H101       23.8760    1.4946   -0.4282 H         1 UNK         0.0786 
    102 H102       25.4094    2.3604   -0.3522 H         1 UNK         0.0786 
    103 H103       24.6998    1.9655   -1.9082 H         1 UNK         0.0786 
    104 H104       24.9583   -0.2103    1.0184 H         1 UNK         0.2977 
    105 H105       26.9787   -2.1105   -6.3743 H         1 UNK         0.3127 
    106 H106       29.6586   -1.2314   -6.5690 H         1 UNK         0.0770 
    107 H107       27.5439   -0.4217   -4.4978 H         1 UNK         0.0814 
    108 H108       29.2836   -0.3142   -4.3092 H         1 UNK         0.0814 
    109 H109       28.5139   -1.8870   -4.4291 H         1 UNK         0.0814 
    110 H110       26.5622    0.5482   -6.7492 H         1 UNK         0.2983 
    111 H111       27.6679    3.1541   -7.1008 H         1 UNK         0.0947 
    112 H112       25.3651    3.7284   -7.8802 H         1 UNK         0.0806 
    113 H113       25.3141    2.7642   -6.4118 H         1 UNK         0.0806 
    114 H114       24.9509    2.0214   -7.9665 H         1 UNK         0.0806 
    115 H115       26.5548    0.7071   -9.5022 H         1 UNK         0.3000 
    116 H116       27.0815    2.2564  -11.8102 H         1 UNK         0.0850 
    117 H117       26.8602    0.0651  -13.0092 H         1 UNK         0.0810 
    118 H118       25.5772    0.2995  -11.8328 H         1 UNK         0.0810 
    119 H119       26.9173   -0.7850  -11.4697 H         1 UNK         0.0810 
    120 H120       29.1378   -0.2350  -10.1973 H         1 UNK         0.3040 
    121 H121       31.3192    0.1433  -12.0999 H         1 UNK         0.0766 
    122 H122       31.0897   -1.4811   -9.5226 H         1 UNK         0.0812 
    123 H123       32.4459   -1.5559  -10.6386 H         1 UNK         0.0812 
    124 H124       30.8512   -2.0811  -11.1586 H         1 UNK         0.0812 
    125 H125       30.3468    1.8553   -9.3319 H         1 UNK         0.3205 
    126 H126       31.1560    3.4607   -8.0635 H         1 UNK         0.0754 
    127 H127       32.9719    4.9295   -8.8641 H         1 UNK         0.0769 
    128 H128       31.8909    4.5377  -10.1918 H         1 UNK         0.0769 
    129 H129       33.4608    3.7450  -10.0653 H         1 UNK         0.0769 
    130 H130       31.4505    1.1453   -6.9866 H         1 UNK         0.2981 
    131 H131       34.1733    0.4925   -6.1931 H         1 UNK         0.0541 
    132 H132       31.9827    2.8886   -4.9530 H         1 UNK         0.3459 
    133 H133       32.7766    3.0667   -3.4075 H         1 UNK         0.3459 
    134 H134       31.5370   -0.6357   -5.1332 H         1 UNK         0.0612 
    135 H135       33.1301   -1.2631   -4.7901 H         1 UNK         0.0612 
    136 H136       33.4346   -3.5123   -5.6765 H         1 UNK         0.0624 
    137 H137       32.7967   -4.1427   -7.1701 H         1 UNK         0.0624 
@<TRIPOS>BOND
     1    1    2 1    
     2    1   72 1    
     3    1   73 1    
     4    1   74 1    
     5    2    3 2    
     6    2    4 am   BACKBONE|DICT|INTERRES
     7    4    5 1    
     8    4   75 1    
     9    5    6 1    
    10    5   35 1    
    11    5   76 1    
    12    6    7 1    
    13    6   77 1    
    14    6   78 1    
    15    7    8 1    
    16    8    9 1    
    17    8   79 1    
    18    8   80 1    
    19    9   10 ar   
    20    9   14 ar   
    21   10   11 ar   
    22   10   81 1    
    23   11   12 ar   
    24   11   71 1    
    25   12   13 ar   
    26   12   82 1    
    27   13   14 ar   
    28   13   15 1    
    29   14   83 1    
    30   15   16 1    
    31   15   84 1    
    32   15   85 1    
    33   16   17 1    
    34   17   18 1    
    35   17   86 1    
    36   17   87 1    
    37   18   19 1    
    38   18   37 1    
    39   18   88 1    
    40   19   20 am   BACKBONE|DICT|INTERRES
    41   19   89 1    
    42   20   21 2    
    43   20   22 1    
    44   22   23 1    
    45   22   24 1    
    46   22   90 1    
    47   23   91 1    
    48   23   92 1    
    49   23   93 1    
    50   24   25 am   BACKBONE|DICT|INTERRES
    51   24   94 1    
    52   25   26 2    
    53   25   27 1    
    54   27   28 1    
    55   27   29 1    
    56   27   95 1    
    57   28   96 1    
    58   28   97 1    
    59   28   98 1    
    60   29   30 am   BACKBONE|DICT|INTERRES
    61   29   99 1    
    62   30   31 2    
    63   30   32 1    
    64   32   33 1    
    65   32   34 1    
    66   32  100 1    
    67   33  101 1    
    68   33  102 1    
    69   33  103 1    
    70   34   35 am   BACKBONE|DICT|INTERRES
    71   34  104 1    
    72   35   36 2    
    73   37   38 2    
    74   37   39 am   BACKBONE|DICT|INTERRES
    75   39   40 1    
    76   39  105 1    
    77   40   41 1    
    78   40   42 1    
    79   40  106 1    
    80   41  107 1    
    81   41  108 1    
    82   41  109 1    
    83   42   43 2    
    84   42   44 am   BACKBONE|DICT|INTERRES
    85   44   45 1    
    86   44  110 1    
    87   45   46 1    
    88   45   47 1    
    89   45  111 1    
    90   46  112 1    
    91   46  113 1    
    92   46  114 1    
    93   47   48 2    
    94   47   49 am   BACKBONE|DICT|INTERRES
    95   49   50 1    
    96   49  115 1    
    97   50   51 1    
    98   50   52 1    
    99   50  116 1    
   100   51  117 1    
   101   51  118 1    
   102   51  119 1    
   103   52   53 2    
   104   52   54 am   BACKBONE|DICT|INTERRES
   105   54   55 1    
   106   54  120 1    
   107   55   56 1    
   108   55   57 1    
   109   55  121 1    
   110   56  122 1    
   111   56  123 1    
   112   56  124 1    
   113   57   58 2    
   114   57   59 am   BACKBONE|DICT|INTERRES
   115   59   60 1    
   116   59  125 1    
   117   60   61 1    
   118   60   62 1    
   119   60  126 1    
   120   61  127 1    
   121   61  128 1    
   122   61  129 1    
   123   62   63 2    
   124   62   64 am   BACKBONE|DICT|INTERRES
   125   64   65 1    
   126   64  130 1    
   127   65   66 1    
   128   65   69 1    
   129   65  131 1    
   130   66   67 am   BACKBONE|DICT|INTERRES
   131   66   68 2    
   132   67  132 1    
   133   67  133 1    
   134   69   70 1    
   135   69  134 1    
   136   69  135 1    
   137   70   71 1    
   138   71  136 1    
   139   71  137 1    
@<TRIPOS>SUBSTRUCTURE
     1 UNK         1 GROUP             0       ****    0 ROOT    
