@<TRIPOS>MOLECULE
3R137
137   139    1
SMALL
USER_CHARGES


@<TRIPOS>ATOM
      1 CA         27.8260   -5.4056    3.9650 C.3       0 UNK        -0.2020 
      2 C          28.1939   -4.3446    2.9383 C.2       0 UNK         0.4855 
      3 O          29.1241   -3.5708    3.1647 O.2       0 UNK        -0.5197 
      4 N          27.4694   -4.3008    1.8165 N.am      1 UNK        -0.4892 
      5 CA         27.6278   -3.3353    0.7294 C.3       1 UNK         0.0835 
      6 C6         28.8743   -3.6231   -0.1644 C.3       12 UNK        -0.0855 
      7 S7         29.9701   -2.1697   -0.3283 S.3       12 UNK        -0.2931 
      8 C8         29.5190   -1.4375   -1.9353 C.3       12 UNK         0.0378 
      9 C9         30.0247   -2.2473   -3.1198 C.ar      12 UNK        -0.0802 
     10 C10        31.2965   -1.9957   -3.6384 C.ar      12 UNK        -0.0944 
     11 C11        31.7639   -2.6988   -4.7517 C.ar      12 UNK        -0.0787 
     12 C12        30.9563   -3.6829   -5.3322 C.ar      12 UNK        -0.0862 
     13 C13        29.6888   -3.9614   -4.8089 C.ar      12 UNK        -0.0733 
     14 C14        29.2217   -3.2248   -3.7151 C.ar      12 UNK        -0.0832 
     15 C15        28.8521   -5.0980   -5.3856 C.3       12 UNK         0.0240 
     16 S16        27.9663   -4.6389   -6.9088 S.3       12 UNK        -0.2522 
     17 C17        26.6604   -3.5389   -6.2637 C.3       12 UNK        -0.0967 
     18 CA         26.3908   -2.3067   -7.1586 C.3       5 UNK         0.0660 
     19 N          25.2255   -1.5510   -6.6939 N.am      5 UNK        -0.4015 
     20 C          24.6005   -0.5996   -7.4025 C.2       4 UNK         0.4946 
     21 O          24.9056   -0.2881   -8.5519 O.2       4 UNK        -0.5353 
     22 CA         23.4695    0.1649   -6.6954 C.3       4 UNK         0.0277 
     23 CB         22.1466   -0.6119   -6.7903 C.3       4 UNK        -0.1981 
     24 N          23.7738    0.4554   -5.2925 N.am      4 UNK        -0.4209 
     25 C          24.7728    1.2518   -4.8847 C.2       3 UNK         0.4942 
     26 O          25.5156    1.8657   -5.6494 O.2       3 UNK        -0.5208 
     27 CA         25.0131    1.3405   -3.3685 C.3       3 UNK         0.0250 
     28 CB         24.1476    2.4492   -2.7490 C.3       3 UNK        -0.1990 
     29 N          24.7800    0.0763   -2.6591 N.am      3 UNK        -0.4232 
     30 C          25.4630   -1.0545   -2.8814 C.2       2 UNK         0.4993 
     31 O          26.3488   -1.1662   -3.7331 O.2       2 UNK        -0.5286 
     32 CA         25.1223   -2.2583   -1.9999 C.3       2 UNK         0.0209 
     33 CB         24.8250   -3.5085   -2.8536 C.3       2 UNK        -0.1931 
     34 N          26.2638   -2.4791   -1.1174 N.am      2 UNK        -0.4546 
     35 C          26.3047   -3.2976   -0.0623 C.2       1 UNK         0.5154 
     36 O          25.3543   -4.0024    0.2930 O.2       1 UNK        -0.5181 
     37 C          27.6198   -1.3871   -7.2865 C.2       5 UNK         0.5014 
     38 O          28.2826   -1.4082   -8.3243 O.2       5 UNK        -0.5248 
     39 N          27.8656   -0.5594   -6.2597 N.am      6 UNK        -0.4434 
     40 CA         28.9509    0.4233   -6.2421 C.3       6 UNK         0.0363 
     41 CB         28.9836    1.1347   -4.8812 C.3       6 UNK        -0.1936 
     42 C          28.8681    1.4510   -7.3837 C.2       6 UNK         0.5081 
     43 O          29.9022    1.7880   -7.9634 O.2       6 UNK        -0.5248 
     44 N          27.6437    1.9064   -7.6857 N.am      7 UNK        -0.4718 
     45 CA         27.3305    2.8138   -8.7894 C.3       7 UNK         0.0273 
     46 CB         25.9375    3.4237   -8.5661 C.3       7 UNK        -0.1935 
     47 C          27.4073    2.1420  -10.1711 C.2       7 UNK         0.5018 
     48 O          27.8373    2.7943  -11.1226 O.2       7 UNK        -0.5186 
     49 N          26.9835    0.8718  -10.2705 N.am      8 UNK        -0.4240 
     50 CA         27.0656    0.0650  -11.4946 C.3       8 UNK         0.0235 
     51 CB         26.2134   -1.2057  -11.3472 C.3       8 UNK        -0.2000 
     52 C          28.5117   -0.2966  -11.8722 C.2       8 UNK         0.4941 
     53 O          28.8255   -0.3580  -13.0624 O.2       8 UNK        -0.5273 
     54 N          29.3568   -0.5174  -10.8571 N.am      9 UNK        -0.4262 
     55 CA         30.8075   -0.6439  -10.9681 C.3       9 UNK         0.0264 
     56 CB         31.3081   -1.5490   -9.8222 C.3       9 UNK        -0.1955 
     57 C          31.4490    0.7604  -10.9941 C.2       9 UNK         0.5031 
     58 O          31.0753    1.5877  -11.8278 O.2       9 UNK        -0.5390 
     59 N          32.4069    1.0145  -10.0975 N.am      10 UNK        -0.4204 
     60 CA         33.0540    2.3114   -9.8974 C.3       10 UNK         0.0237 
     61 CB         34.1253    2.5553  -10.9827 C.3       10 UNK        -0.1985 
     62 C          33.6162    2.3810   -8.4702 C.2       10 UNK         0.4970 
     63 O          34.7484    2.8291   -8.2791 O.2       10 UNK        -0.4914 
     64 N          32.8364    1.8901   -7.4986 N.am      11 UNK        -0.4285 
     65 CA         33.2677    1.7330   -6.0987 C.3       11 UNK         0.1007 
     66 C          32.8871    2.9360   -5.1897 C.2       11 UNK         0.5703 
     67 N          32.1260    3.9152   -5.6650 N.am      11 UNK        -0.7361 
     68 O          33.3005    2.9880   -4.0339 O.2       11 UNK        -0.4986 
     69 C69        32.7895    0.3913   -5.4835 C.3       12 UNK        -0.0947 
     70 S70        33.1344   -1.0653   -6.5315 S.3       12 UNK        -0.2240 
     71 C71        33.1524   -2.4104   -5.3056 C.3       12 UNK         0.0194 
     72 H72        28.6767   -6.0615    4.1478 H         1 UNK         0.0906 
     73 H73        27.5492   -4.9353    4.9082 H         1 UNK         0.0906 
     74 H74        26.9892   -6.0206    3.6342 H         1 UNK         0.0906 
     75 H75        26.6642   -4.9053    1.6934 H         1 UNK         0.3140 
     76 H76        27.7231   -2.3512    1.1945 H         1 UNK         0.1085 
     77 H77        29.4859   -4.4091    0.2817 H         1 UNK         0.0836 
     78 H78        28.6077   -4.0197   -1.1433 H         1 UNK         0.0836 
     79 H79        28.4453   -1.2861   -2.0059 H         1 UNK         0.0731 
     80 H80        29.9524   -0.4369   -1.9746 H         1 UNK         0.0731 
     81 H81        31.9211   -1.2438   -3.1768 H         1 UNK         0.1312 
     82 H82        31.3193   -4.2436   -6.1828 H         1 UNK         0.1406 
     83 H83        28.2359   -3.4212   -3.3185 H         1 UNK         0.1631 
     84 H84        28.1346   -5.4608   -4.6477 H         1 UNK         0.0717 
     85 H85        29.5045   -5.9437   -5.6078 H         1 UNK         0.0717 
     86 H86        25.7506   -4.1335   -6.1670 H         1 UNK         0.0934 
     87 H87        26.9158   -3.2172   -5.2564 H         1 UNK         0.0934 
     88 H88        26.1556   -2.6725   -8.1606 H         1 UNK         0.0739 
     89 H89        24.9498   -1.6957   -5.7342 H         1 UNK         0.3093 
     90 H90        23.3437    1.1182   -7.2135 H         1 UNK         0.0818 
     91 H91        21.3196   -0.0398   -6.3694 H         1 UNK         0.0819 
     92 H92        21.8943   -0.8238   -7.8305 H         1 UNK         0.0819 
     93 H93        22.1961   -1.5672   -6.2663 H         1 UNK         0.0819 
     94 H94        23.2039    0.0029   -4.5928 H         1 UNK         0.3041 
     95 H95        26.0616    1.6082   -3.2223 H         1 UNK         0.0784 
     96 H96        24.3199    3.4032   -3.2497 H         1 UNK         0.0793 
     97 H97        23.0829    2.2265   -2.8300 H         1 UNK         0.0793 
     98 H98        24.3821    2.5935   -1.6941 H         1 UNK         0.0793 
     99 H99        24.0789    0.0918   -1.9317 H         1 UNK         0.3024 
    100 H100       24.2431   -2.0278   -1.3941 H         1 UNK         0.1171 
    101 H101       24.0777   -3.2959   -3.6191 H         1 UNK         0.0786 
    102 H102       24.4325   -4.3220   -2.2437 H         1 UNK         0.0786 
    103 H103       25.7181   -3.8777   -3.3563 H         1 UNK         0.0786 
    104 H104       27.0762   -1.9191   -1.3330 H         1 UNK         0.2977 
    105 H105       27.2894   -0.6279   -5.4256 H         1 UNK         0.3127 
    106 H106       29.8770   -0.1380   -6.3732 H         1 UNK         0.0770 
    107 H107       28.0635    1.6876   -4.6934 H         1 UNK         0.0814 
    108 H108       29.8056    1.8497   -4.8304 H         1 UNK         0.0814 
    109 H109       29.1174    0.4238   -4.0688 H         1 UNK         0.0814 
    110 H110       26.8665    1.6281   -7.0929 H         1 UNK         0.2983 
    111 H111       28.0637    3.6235   -8.7771 H         1 UNK         0.0947 
    112 H112       25.6831    4.1228   -9.3639 H         1 UNK         0.0806 
    113 H113       25.8921    3.9733   -7.6256 H         1 UNK         0.0806 
    114 H114       25.1619    2.6570   -8.5416 H         1 UNK         0.0806 
    115 H115       26.5628    0.4276   -9.4600 H         1 UNK         0.3000 
    116 H116       26.6512    0.6569  -12.3135 H         1 UNK         0.0850 
    117 H117       26.2639   -1.8173  -12.2490 H         1 UNK         0.0810 
    118 H118       25.1642   -0.9617  -11.1807 H         1 UNK         0.0810 
    119 H119       26.5512   -1.8227  -10.5141 H         1 UNK         0.0810 
    120 H120       28.9770   -0.5240   -9.9137 H         1 UNK         0.3040 
    121 H121       31.0557   -1.1294  -11.9140 H         1 UNK         0.0766 
    122 H122       32.3826   -1.7253   -9.8858 H         1 UNK         0.0812 
    123 H123       30.8262   -2.5263   -9.8613 H         1 UNK         0.0812 
    124 H124       31.0885   -1.1232   -8.8417 H         1 UNK         0.0812 
    125 H125       32.6641    0.2887   -9.4417 H         1 UNK         0.3205 
    126 H126       32.2980    3.0962   -9.9705 H         1 UNK         0.0754 
    127 H127       34.6004    3.5287  -10.8543 H         1 UNK         0.0769 
    128 H128       33.6926    2.5419  -11.9830 H         1 UNK         0.0769 
    129 H129       34.9101    1.7987  -10.9477 H         1 UNK         0.0769 
    130 H130       31.8747    1.6380   -7.7083 H         1 UNK         0.2981 
    131 H131       34.3586    1.6980   -6.0786 H         1 UNK         0.0541 
    132 H132       31.7819    3.8809   -6.6111 H         1 UNK         0.3459 
    133 H133       31.8934    4.6935   -5.0689 H         1 UNK         0.3459 
    134 H134       31.7225    0.4209   -5.2767 H         1 UNK         0.0612 
    135 H135       33.2786    0.2411   -4.5196 H         1 UNK         0.0612 
    136 H136       33.5555   -3.3067   -5.7792 H         1 UNK         0.0624 
    137 H137       33.8405   -2.1602   -4.4967 H         1 UNK         0.0624 
@<TRIPOS>BOND
     1    1    2 1    
     2    1   72 1    
     3    1   73 1    
     4    1   74 1    
     5    2    3 2    
     6    2    4 am   BACKBONE|DICT|INTERRES
     7    4    5 1    
     8    4   75 1    
     9    5    6 1    
    10    5   35 1    
    11    5   76 1    
    12    6    7 1    
    13    6   77 1    
    14    6   78 1    
    15    7    8 1    
    16    8    9 1    
    17    8   79 1    
    18    8   80 1    
    19    9   10 ar   
    20    9   14 ar   
    21   10   11 ar   
    22   10   81 1    
    23   11   12 ar   
    24   11   71 1    
    25   12   13 ar   
    26   12   82 1    
    27   13   14 ar   
    28   13   15 1    
    29   14   83 1    
    30   15   16 1    
    31   15   84 1    
    32   15   85 1    
    33   16   17 1    
    34   17   18 1    
    35   17   86 1    
    36   17   87 1    
    37   18   19 1    
    38   18   37 1    
    39   18   88 1    
    40   19   20 am   BACKBONE|DICT|INTERRES
    41   19   89 1    
    42   20   21 2    
    43   20   22 1    
    44   22   23 1    
    45   22   24 1    
    46   22   90 1    
    47   23   91 1    
    48   23   92 1    
    49   23   93 1    
    50   24   25 am   BACKBONE|DICT|INTERRES
    51   24   94 1    
    52   25   26 2    
    53   25   27 1    
    54   27   28 1    
    55   27   29 1    
    56   27   95 1    
    57   28   96 1    
    58   28   97 1    
    59   28   98 1    
    60   29   30 am   BACKBONE|DICT|INTERRES
    61   29   99 1    
    62   30   31 2    
    63   30   32 1    
    64   32   33 1    
    65   32   34 1    
    66   32  100 1    
    67   33  101 1    
    68   33  102 1    
    69   33  103 1    
    70   34   35 am   BACKBONE|DICT|INTERRES
    71   34  104 1    
    72   35   36 2    
    73   37   38 2    
    74   37   39 am   BACKBONE|DICT|INTERRES
    75   39   40 1    
    76   39  105 1    
    77   40   41 1    
    78   40   42 1    
    79   40  106 1    
    80   41  107 1    
    81   41  108 1    
    82   41  109 1    
    83   42   43 2    
    84   42   44 am   BACKBONE|DICT|INTERRES
    85   44   45 1    
    86   44  110 1    
    87   45   46 1    
    88   45   47 1    
    89   45  111 1    
    90   46  112 1    
    91   46  113 1    
    92   46  114 1    
    93   47   48 2    
    94   47   49 am   BACKBONE|DICT|INTERRES
    95   49   50 1    
    96   49  115 1    
    97   50   51 1    
    98   50   52 1    
    99   50  116 1    
   100   51  117 1    
   101   51  118 1    
   102   51  119 1    
   103   52   53 2    
   104   52   54 am   BACKBONE|DICT|INTERRES
   105   54   55 1    
   106   54  120 1    
   107   55   56 1    
   108   55   57 1    
   109   55  121 1    
   110   56  122 1    
   111   56  123 1    
   112   56  124 1    
   113   57   58 2    
   114   57   59 am   BACKBONE|DICT|INTERRES
   115   59   60 1    
   116   59  125 1    
   117   60   61 1    
   118   60   62 1    
   119   60  126 1    
   120   61  127 1    
   121   61  128 1    
   122   61  129 1    
   123   62   63 2    
   124   62   64 am   BACKBONE|DICT|INTERRES
   125   64   65 1    
   126   64  130 1    
   127   65   66 1    
   128   65   69 1    
   129   65  131 1    
   130   66   67 am   BACKBONE|DICT|INTERRES
   131   66   68 2    
   132   67  132 1    
   133   67  133 1    
   134   69   70 1    
   135   69  134 1    
   136   69  135 1    
   137   70   71 1    
   138   71  136 1    
   139   71  137 1    
@<TRIPOS>SUBSTRUCTURE
     1 UNK         1 GROUP             0       ****    0 ROOT    
