@<TRIPOS>MOLECULE
3R137
137   139    1
SMALL
USER_CHARGES


@<TRIPOS>ATOM
      1 CA         29.6567   -3.1630    2.8566 C.3       0 UNK        -0.2020 
      2 C          29.1322   -2.8610    1.4608 C.2       0 UNK         0.4855 
      3 O          29.2054   -1.7161    1.0133 O.2       0 UNK        -0.5197 
      4 N          28.6145   -3.8805    0.7655 N.am      1 UNK        -0.4892 
      5 CA         28.0230   -3.7628   -0.5715 C.3       1 UNK         0.0835 
      6 C6         27.8954   -5.1428   -1.2692 C.3       12 UNK        -0.0855 
      7 S7         29.4093   -6.1729   -1.3367 S.3       12 UNK        -0.2931 
      8 C8         30.7714   -4.9986   -1.6749 C.3       12 UNK         0.0378 
      9 C9         30.5881   -4.1500   -2.9316 C.ar      12 UNK        -0.0802 
     10 C10        31.0718   -2.8362   -2.9433 C.ar      12 UNK        -0.0944 
     11 C11        30.9114   -2.0255   -4.0708 C.ar      12 UNK        -0.0787 
     12 C12        30.2404   -2.5359   -5.1845 C.ar      12 UNK        -0.0862 
     13 C13        29.7738   -3.8511   -5.2011 C.ar      12 UNK        -0.0733 
     14 C14        29.9636   -4.6589   -4.0777 C.ar      12 UNK        -0.0832 
     15 C15        29.0723   -4.3931   -6.4384 C.3       12 UNK         0.0240 
     16 S16        27.3126   -4.7702   -6.1529 S.3       12 UNK        -0.2522 
     17 C17        26.6500   -3.2001   -5.5050 C.3       12 UNK        -0.0967 
     18 CA         26.2739   -2.1814   -6.6161 C.3       5 UNK         0.0660 
     19 N          25.0104   -1.5043   -6.3235 N.am      5 UNK        -0.4015 
     20 C          24.2948   -0.7917   -7.2041 C.2       4 UNK         0.4946 
     21 O          24.5832   -0.6807   -8.3954 O.2       4 UNK        -0.5353 
     22 CA         23.0662   -0.0498   -6.6486 C.3       4 UNK         0.0277 
     23 CB         21.8228   -0.9520   -6.6970 C.3       4 UNK        -0.1981 
     24 N          23.2682    0.4365   -5.2791 N.am      4 UNK        -0.4209 
     25 C          24.1364    1.4030   -4.9467 C.2       3 UNK         0.4942 
     26 O          24.8167    2.0186   -5.7653 O.2       3 UNK        -0.5208 
     27 CA         24.3130    1.6999   -3.4480 C.3       3 UNK         0.0250 
     28 CB         23.2455    2.6949   -2.9658 C.3       3 UNK        -0.1990 
     29 N          24.2959    0.5046   -2.5954 N.am      3 UNK        -0.4232 
     30 C          25.1576   -0.5174   -2.6891 C.2       2 UNK         0.4993 
     31 O          26.0323   -0.6064   -3.5553 O.2       2 UNK        -0.5286 
     32 CA         24.9872   -1.6554   -1.6805 C.3       2 UNK         0.0209 
     33 CB         23.8811   -2.6266   -2.1349 C.3       2 UNK        -0.1931 
     34 N          26.2582   -2.3667   -1.5598 N.am      2 UNK        -0.4546 
     35 C          26.6391   -3.0819   -0.4961 C.2       1 UNK         0.5154 
     36 O          25.9282   -3.2470    0.5000 O.2       1 UNK        -0.5181 
     37 C          27.3896   -1.1441   -6.8461 C.2       5 UNK         0.5014 
     38 O          28.1077   -1.2276   -7.8422 O.2       5 UNK        -0.5248 
     39 N          27.4857   -0.1621   -5.9378 N.am      6 UNK        -0.4434 
     40 CA         28.4408    0.9476   -5.9836 C.3       6 UNK         0.0363 
     41 CB         28.3416    1.7524   -4.6779 C.3       6 UNK        -0.1936 
     42 C          28.2681    1.8755   -7.1979 C.2       6 UNK         0.5081 
     43 O          29.2494    2.4709   -7.6379 O.2       6 UNK        -0.5248 
     44 N          27.0377    1.9889   -7.7142 N.am      7 UNK        -0.4718 
     45 CA         26.7245    2.7049   -8.9511 C.3       7 UNK         0.0273 
     46 CB         25.2206    3.0212   -8.9855 C.3       7 UNK        -0.1935 
     47 C          27.1381    1.9247  -10.2118 C.2       7 UNK         0.5018 
     48 O          27.4730    2.5507  -11.2184 O.2       7 UNK        -0.5186 
     49 N          27.0835    0.5868  -10.1498 N.am      8 UNK        -0.4240 
     50 CA         27.4329   -0.3085  -11.2532 C.3       8 UNK         0.0235 
     51 CB         26.6967   -1.6481  -11.0813 C.3       8 UNK        -0.2000 
     52 C          28.9496   -0.5269  -11.3636 C.2       8 UNK         0.4941 
     53 O          29.4946   -0.4404  -12.4655 O.2       8 UNK        -0.5273 
     54 N          29.5978   -0.8231  -10.2307 N.am      9 UNK        -0.4262 
     55 CA         31.0413   -1.0414  -10.1260 C.3       9 UNK         0.0264 
     56 CB         31.3157   -1.8814   -8.8698 C.3       9 UNK        -0.1955 
     57 C          31.8172    0.2841  -10.0602 C.2       9 UNK         0.5031 
     58 O          31.2385    1.3379   -9.7916 O.2       9 UNK        -0.5390 
     59 N          33.1399    0.2067  -10.2480 N.am      10 UNK        -0.4204 
     60 CA         34.0708    1.3374  -10.1610 C.3       10 UNK         0.0237 
     61 CB         35.3063    1.0301  -11.0294 C.3       10 UNK        -0.1985 
     62 C          34.4413    1.6945   -8.7036 C.2       10 UNK         0.4970 
     63 O          35.6241    1.8544   -8.3959 O.2       10 UNK        -0.4914 
     64 N          33.4336    1.8081   -7.8294 N.am      11 UNK        -0.4285 
     65 CA         33.5887    2.1829   -6.4121 C.3       11 UNK         0.1007 
     66 C          33.7396    3.7141   -6.1748 C.2       11 UNK         0.5703 
     67 N          33.5431    4.5696   -7.1716 N.am      11 UNK        -0.7361 
     68 O          34.0567    4.1343   -5.0644 O.2       11 UNK        -0.4986 
     69 C69        32.4608    1.5881   -5.5279 C.3       12 UNK        -0.0947 
     70 S70        32.4401   -0.2333   -5.5588 S.3       12 UNK        -0.2240 
     71 C71        31.4371   -0.5943   -4.0789 C.3       12 UNK         0.0194 
     72 H72        29.1159   -2.5729    3.5959 H         1 UNK         0.0906 
     73 H73        29.5453   -4.2158    3.1155 H         1 UNK         0.0906 
     74 H74        30.7140   -2.9079    2.9235 H         1 UNK         0.0906 
     75 H75        28.5609   -4.7983    1.1839 H         1 UNK         0.3140 
     76 H76        28.6709   -3.1216   -1.1720 H         1 UNK         0.1085 
     77 H77        27.5478   -5.0071   -2.2956 H         1 UNK         0.0836 
     78 H78        27.1278   -5.7436   -0.7766 H         1 UNK         0.0836 
     79 H79        30.9081   -4.3609   -0.8007 H         1 UNK         0.0731 
     80 H80        31.6957   -5.5678   -1.7798 H         1 UNK         0.0731 
     81 H81        31.5722   -2.4417   -2.0692 H         1 UNK         0.1312 
     82 H82        30.0918   -1.9056   -6.0474 H         1 UNK         0.1406 
     83 H83        29.6030   -5.6783   -4.0940 H         1 UNK         0.1631 
     84 H84        29.5778   -5.3030   -6.7645 H         1 UNK         0.0717 
     85 H85        29.1494   -3.6912   -7.2692 H         1 UNK         0.0717 
     86 H86        25.7596   -3.4809   -4.9408 H         1 UNK         0.0934 
     87 H87        27.3240   -2.7790   -4.7570 H         1 UNK         0.0934 
     88 H88        26.1299   -2.7193   -7.5560 H         1 UNK         0.0739 
     89 H89        24.7312   -1.4824   -5.3542 H         1 UNK         0.3093 
     90 H90        22.8866    0.8152   -7.2911 H         1 UNK         0.0818 
     91 H91        20.9290   -0.4130   -6.3824 H         1 UNK         0.0819 
     92 H92        21.6418   -1.3102   -7.7116 H         1 UNK         0.0819 
     93 H93        21.9305   -1.8284   -6.0567 H         1 UNK         0.0819 
     94 H94        22.7340   -0.0067   -4.5458 H         1 UNK         0.3041 
     95 H95        25.2909    2.1697   -3.3252 H         1 UNK         0.0784 
     96 H96        23.2530    3.6002   -3.5749 H         1 UNK         0.0793 
     97 H97        22.2413    2.2728   -3.0222 H         1 UNK         0.0793 
     98 H98        23.4244    3.0008   -1.9348 H         1 UNK         0.0793 
     99 H99        23.5984    0.4863   -1.8648 H         1 UNK         0.3024 
    100 H100       24.7243   -1.2212   -0.7128 H         1 UNK         0.1171 
    101 H101       22.9245   -2.1142   -2.2438 H         1 UNK         0.0786 
    102 H102       23.7335   -3.4267   -1.4092 H         1 UNK         0.0786 
    103 H103       24.1171   -3.0885   -3.0940 H         1 UNK         0.0786 
    104 H104       26.8927   -2.2115   -2.3336 H         1 UNK         0.2977 
    105 H105       26.8779   -0.2012   -5.1206 H         1 UNK         0.3127 
    106 H106       29.4380    0.5119   -6.0546 H         1 UNK         0.0770 
    107 H107       27.3846    2.2685   -4.5996 H         1 UNK         0.0814 
    108 H108       29.1251    2.5095   -4.6278 H         1 UNK         0.0814 
    109 H109       28.4462    1.1133   -3.8011 H         1 UNK         0.0814 
    110 H110       26.2616    1.5718   -7.2120 H         1 UNK         0.2983 
    111 H111       27.2723    3.6500   -8.9527 H         1 UNK         0.0947 
    112 H112       24.9582    3.5760   -9.8873 H         1 UNK         0.0806 
    113 H113       24.9245    3.6308   -8.1315 H         1 UNK         0.0806 
    114 H114       24.6171    2.1127   -8.9725 H         1 UNK         0.0806 
    115 H115       26.8074    0.1523   -9.2786 H         1 UNK         0.3000 
    116 H116       27.0919    0.1408  -12.1887 H         1 UNK         0.0850 
    117 H117       26.9228   -2.3261  -11.9053 H         1 UNK         0.0810 
    118 H118       25.6159   -1.5052  -11.0649 H         1 UNK         0.0810 
    119 H119       26.9778   -2.1527  -10.1563 H         1 UNK         0.0810 
    120 H120       29.0675   -0.8649   -9.3617 H         1 UNK         0.3040 
    121 H121       31.3793   -1.5983  -11.0026 H         1 UNK         0.0766 
    122 H122       32.3741   -2.1246   -8.7703 H         1 UNK         0.0812 
    123 H123       30.7679   -2.8231   -8.8929 H         1 UNK         0.0812 
    124 H124       31.0208   -1.3403   -7.9722 H         1 UNK         0.0812 
    125 H125       33.5523   -0.6994  -10.4200 H         1 UNK         0.3205 
    126 H126       33.5873    2.2202  -10.5851 H         1 UNK         0.0754 
    127 H127       35.9937    1.8770  -11.0484 H         1 UNK         0.0769 
    128 H128       35.0243    0.8251  -12.0624 H         1 UNK         0.0769 
    129 H129       35.8597    0.1681  -10.6545 H         1 UNK         0.0769 
    130 H130       32.4853    1.6907   -8.1702 H         1 UNK         0.2981 
    131 H131       34.5255    1.7484   -6.0578 H         1 UNK         0.0541 
    132 H132       33.2748    4.2388   -8.0841 H         1 UNK         0.3459 
    133 H133       33.6512    5.5573   -7.0029 H         1 UNK         0.3459 
    134 H134       31.4863    1.9567   -5.8522 H         1 UNK         0.0612 
    135 H135       32.5818    1.9021   -4.4893 H         1 UNK         0.0612 
    136 H136       32.0439   -0.3983   -3.1937 H         1 UNK         0.0624 
    137 H137       30.5913    0.0889   -4.0307 H         1 UNK         0.0624 
@<TRIPOS>BOND
     1    1    2 1    
     2    1   72 1    
     3    1   73 1    
     4    1   74 1    
     5    2    3 2    
     6    2    4 am   BACKBONE|DICT|INTERRES
     7    4    5 1    
     8    4   75 1    
     9    5    6 1    
    10    5   35 1    
    11    5   76 1    
    12    6    7 1    
    13    6   77 1    
    14    6   78 1    
    15    7    8 1    
    16    8    9 1    
    17    8   79 1    
    18    8   80 1    
    19    9   10 ar   
    20    9   14 ar   
    21   10   11 ar   
    22   10   81 1    
    23   11   12 ar   
    24   11   71 1    
    25   12   13 ar   
    26   12   82 1    
    27   13   14 ar   
    28   13   15 1    
    29   14   83 1    
    30   15   16 1    
    31   15   84 1    
    32   15   85 1    
    33   16   17 1    
    34   17   18 1    
    35   17   86 1    
    36   17   87 1    
    37   18   19 1    
    38   18   37 1    
    39   18   88 1    
    40   19   20 am   BACKBONE|DICT|INTERRES
    41   19   89 1    
    42   20   21 2    
    43   20   22 1    
    44   22   23 1    
    45   22   24 1    
    46   22   90 1    
    47   23   91 1    
    48   23   92 1    
    49   23   93 1    
    50   24   25 am   BACKBONE|DICT|INTERRES
    51   24   94 1    
    52   25   26 2    
    53   25   27 1    
    54   27   28 1    
    55   27   29 1    
    56   27   95 1    
    57   28   96 1    
    58   28   97 1    
    59   28   98 1    
    60   29   30 am   BACKBONE|DICT|INTERRES
    61   29   99 1    
    62   30   31 2    
    63   30   32 1    
    64   32   33 1    
    65   32   34 1    
    66   32  100 1    
    67   33  101 1    
    68   33  102 1    
    69   33  103 1    
    70   34   35 am   BACKBONE|DICT|INTERRES
    71   34  104 1    
    72   35   36 2    
    73   37   38 2    
    74   37   39 am   BACKBONE|DICT|INTERRES
    75   39   40 1    
    76   39  105 1    
    77   40   41 1    
    78   40   42 1    
    79   40  106 1    
    80   41  107 1    
    81   41  108 1    
    82   41  109 1    
    83   42   43 2    
    84   42   44 am   BACKBONE|DICT|INTERRES
    85   44   45 1    
    86   44  110 1    
    87   45   46 1    
    88   45   47 1    
    89   45  111 1    
    90   46  112 1    
    91   46  113 1    
    92   46  114 1    
    93   47   48 2    
    94   47   49 am   BACKBONE|DICT|INTERRES
    95   49   50 1    
    96   49  115 1    
    97   50   51 1    
    98   50   52 1    
    99   50  116 1    
   100   51  117 1    
   101   51  118 1    
   102   51  119 1    
   103   52   53 2    
   104   52   54 am   BACKBONE|DICT|INTERRES
   105   54   55 1    
   106   54  120 1    
   107   55   56 1    
   108   55   57 1    
   109   55  121 1    
   110   56  122 1    
   111   56  123 1    
   112   56  124 1    
   113   57   58 2    
   114   57   59 am   BACKBONE|DICT|INTERRES
   115   59   60 1    
   116   59  125 1    
   117   60   61 1    
   118   60   62 1    
   119   60  126 1    
   120   61  127 1    
   121   61  128 1    
   122   61  129 1    
   123   62   63 2    
   124   62   64 am   BACKBONE|DICT|INTERRES
   125   64   65 1    
   126   64  130 1    
   127   65   66 1    
   128   65   69 1    
   129   65  131 1    
   130   66   67 am   BACKBONE|DICT|INTERRES
   131   66   68 2    
   132   67  132 1    
   133   67  133 1    
   134   69   70 1    
   135   69  134 1    
   136   69  135 1    
   137   70   71 1    
   138   71  136 1    
   139   71  137 1    
@<TRIPOS>SUBSTRUCTURE
     1 UNK         1 GROUP             0       ****    0 ROOT    
