@<TRIPOS>MOLECULE
3R137
137   139    1
SMALL
USER_CHARGES


@<TRIPOS>ATOM
      1 CA         27.1387    1.3969    1.7634 C.3       0 UNK        -0.2020 
      2 C          27.4221   -0.0250    1.3005 C.2       0 UNK         0.4855 
      3 O          27.0473   -0.9705    1.9947 O.2       0 UNK        -0.5197 
      4 N          28.0846   -0.1622    0.1426 N.am      1 UNK        -0.4892 
      5 CA         28.4583   -1.4070   -0.5499 C.3       1 UNK         0.0835 
      6 C6         29.2920   -2.3980    0.3144 C.3       12 UNK        -0.0855 
      7 S7         30.8660   -1.6639    0.8831 S.3       12 UNK        -0.2931 
      8 C8         32.0864   -2.4766   -0.2039 C.3       12 UNK         0.0378 
      9 C9         31.7794   -2.2620   -1.6801 C.ar      12 UNK        -0.0802 
     10 C10        31.4754   -3.3518   -2.5028 C.ar      12 UNK        -0.0944 
     11 C11        31.1610   -3.1558   -3.8502 C.ar      12 UNK        -0.0787 
     12 C12        31.1369   -1.8585   -4.3702 C.ar      12 UNK        -0.0862 
     13 C13        31.4401   -0.7618   -3.5579 C.ar      12 UNK        -0.0733 
     14 C14        31.7816   -0.9717   -2.2192 C.ar      12 UNK        -0.0832 
     15 C15        31.3717    0.6522   -4.1182 C.3       12 UNK         0.0240 
     16 S16        29.9619    1.5940   -3.4424 S.3       12 UNK        -0.2522 
     17 C17        28.5427    0.5997   -4.0056 C.3       12 UNK        -0.0967 
     18 CA         28.1226    0.9248   -5.4635 C.3       5 UNK         0.0660 
     19 N          27.7446   -0.2855   -6.1934 N.am      5 UNK        -0.4015 
     20 C          27.6101   -0.3722   -7.5234 C.2       4 UNK         0.4946 
     21 O          27.8220    0.5616   -8.2937 O.2       4 UNK        -0.5353 
     22 CA         27.1176   -1.7164   -8.0890 C.3       4 UNK         0.0277 
     23 CB         28.3083   -2.6596   -8.3299 C.3       4 UNK        -0.1981 
     24 N          26.1294   -2.3728   -7.2263 N.am      4 UNK        -0.4209 
     25 C          24.9304   -1.8543   -6.9190 C.2       3 UNK         0.4942 
     26 O          24.4953   -0.8139   -7.4097 O.2       3 UNK        -0.5208 
     27 CA         24.1011   -2.5735   -5.8374 C.3       3 UNK         0.0250 
     28 CB         23.1253   -3.5677   -6.4860 C.3       3 UNK        -0.1990 
     29 N          24.8924   -3.2639   -4.8085 N.am      3 UNK        -0.4232 
     30 C          25.8437   -2.7027   -4.0473 C.2       2 UNK         0.4993 
     31 O          26.1923   -1.5244   -4.1580 O.2       2 UNK        -0.5286 
     32 CA         26.5622   -3.6359   -3.0538 C.3       2 UNK         0.0209 
     33 CB         27.2797   -4.7753   -3.7994 C.3       2 UNK        -0.1931 
     34 N          27.5497   -2.9239   -2.2359 N.am      2 UNK        -0.4546 
     35 C          27.2519   -2.1056   -1.2172 C.2       1 UNK         0.5154 
     36 O          26.0993   -1.9110   -0.8223 O.2       1 UNK        -0.5181 
     37 C          26.9927    1.9696   -5.5149 C.2       5 UNK         0.5014 
     38 O          27.2600    3.1441   -5.7697 O.2       5 UNK        -0.5248 
     39 N          25.7430    1.5141   -5.3292 N.am      6 UNK        -0.4434 
     40 CA         24.5303    2.3311   -5.4595 C.3       6 UNK         0.0363 
     41 CB         23.3083    1.5231   -4.9953 C.3       6 UNK        -0.1936 
     42 C          24.3202    2.8732   -6.8867 C.2       6 UNK         0.5081 
     43 O          23.8433    3.9966   -7.0451 O.2       6 UNK        -0.5248 
     44 N          24.7255    2.0884   -7.8941 N.am      7 UNK        -0.4718 
     45 CA         24.7664    2.4692   -9.3092 C.3       7 UNK         0.0273 
     46 CB         24.7833    1.1893  -10.1628 C.3       7 UNK        -0.1935 
     47 C          25.9506    3.3889   -9.6804 C.2       7 UNK         0.5018 
     48 O          26.0517    3.7742  -10.8460 O.2       7 UNK        -0.5186 
     49 N          26.8175    3.7206   -8.7100 N.am      8 UNK        -0.4240 
     50 CA         28.0206    4.5544   -8.8259 C.3       8 UNK         0.0235 
     51 CB         27.6675    5.9979   -9.2466 C.3       8 UNK        -0.2000 
     52 C          29.1294    3.9218   -9.6904 C.2       8 UNK         0.4941 
     53 O          29.8913    4.6451  -10.3363 O.2       8 UNK        -0.5273 
     54 N          29.2177    2.5880   -9.6641 N.am      9 UNK        -0.4262 
     55 CA         30.2904    1.7838  -10.2414 C.3       9 UNK         0.0264 
     56 CB         29.6763    0.8116  -11.2702 C.3       9 UNK        -0.1955 
     57 C          31.0268    1.0699   -9.0915 C.2       9 UNK         0.5031 
     58 O          31.0645    1.5874   -7.9715 O.2       9 UNK        -0.5390 
     59 N          31.6032   -0.1026   -9.3722 N.am      10 UNK        -0.4204 
     60 CA         32.2492   -0.9736   -8.3973 C.3       10 UNK         0.0237 
     61 CB         33.7024   -0.5238   -8.1580 C.3       10 UNK        -0.1985 
     62 C          32.1912   -2.4139   -8.9131 C.2       10 UNK         0.4970 
     63 O          32.0823   -2.6266  -10.1233 O.2       10 UNK        -0.4914 
     64 N          32.2805   -3.3672   -7.9822 N.am      11 UNK        -0.4285 
     65 CA         32.3491   -4.8136   -8.2456 C.3       11 UNK         0.1007 
     66 C          33.7595   -5.3298   -8.6605 C.2       11 UNK         0.5703 
     67 N          34.8092   -4.5170   -8.6202 N.am      11 UNK        -0.7361 
     68 O          33.8999   -6.4882   -9.0459 O.2       11 UNK        -0.4986 
     69 C69        31.7415   -5.6351   -7.0730 C.3       12 UNK        -0.0947 
     70 S70        32.3319   -5.1050   -5.4241 S.3       12 UNK        -0.2240 
     71 C71        30.8281   -4.3403   -4.7420 C.3       12 UNK         0.0194 
     72 H72        27.5296    2.1405    1.0689 H         1 UNK         0.0906 
     73 H73        27.5947    1.5718    2.7376 H         1 UNK         0.0906 
     74 H74        26.0644    1.5533    1.8572 H         1 UNK         0.0906 
     75 H75        28.3426    0.6779   -0.3559 H         1 UNK         0.3140 
     76 H76        29.0932   -1.0786   -1.3733 H         1 UNK         0.1085 
     77 H77        29.5142   -3.3099   -0.2423 H         1 UNK         0.0836 
     78 H78        28.7281   -2.7275    1.1876 H         1 UNK         0.0836 
     79 H79        33.0781   -2.0793    0.0165 H         1 UNK         0.0731 
     80 H80        32.1218   -3.5404    0.0369 H         1 UNK         0.0731 
     81 H81        31.4814   -4.3544   -2.0969 H         1 UNK         0.1312 
     82 H82        30.8659   -1.7000   -5.4040 H         1 UNK         0.1406 
     83 H83        32.0081   -0.1253   -1.5843 H         1 UNK         0.1631 
     84 H84        31.3033    0.6377   -5.2075 H         1 UNK         0.0717 
     85 H85        32.2961    1.1793   -3.8785 H         1 UNK         0.0717 
     86 H86        28.7988   -0.4539   -3.9030 H         1 UNK         0.0934 
     87 H87        27.7188    0.7427   -3.3029 H         1 UNK         0.0934 
     88 H88        28.9784    1.3480   -5.9951 H         1 UNK         0.0739 
     89 H89        27.4239   -1.0563   -5.6177 H         1 UNK         0.3093 
     90 H90        26.6393   -1.5150   -9.0497 H         1 UNK         0.0818 
     91 H91        29.0366   -2.2000   -8.9997 H         1 UNK         0.0819 
     92 H92        28.8279   -2.9063   -7.4035 H         1 UNK         0.0819 
     93 H93        27.9892   -3.5922   -8.7955 H         1 UNK         0.0819 
     94 H94        26.3997   -3.2434   -6.7934 H         1 UNK         0.3041 
     95 H95        23.5145   -1.8080   -5.3257 H         1 UNK         0.0784 
     96 H96        22.5083   -3.0743   -7.2387 H         1 UNK         0.0793 
     97 H97        23.6503   -4.3860   -6.9804 H         1 UNK         0.0793 
     98 H98        22.4476   -3.9987   -5.7487 H         1 UNK         0.0793 
     99 H99        24.6736   -4.2392   -4.6625 H         1 UNK         0.3024 
    100 H100       25.8083   -4.0645   -2.3891 H         1 UNK         0.1171 
    101 H101       26.5685   -5.4444   -4.2848 H         1 UNK         0.0786 
    102 H102       27.9429   -4.3917   -4.5744 H         1 UNK         0.0786 
    103 H103       27.8726   -5.3870   -3.1188 H         1 UNK         0.0786 
    104 H104       28.5138   -3.0144   -2.5212 H         1 UNK         0.2977 
    105 H105       25.6168    0.5322   -5.1160 H         1 UNK         0.3127 
    106 H106       24.6415    3.1909   -4.7953 H         1 UNK         0.0770 
    107 H107       23.1233    0.6623   -5.6377 H         1 UNK         0.0814 
    108 H108       22.4081    2.1387   -5.0135 H         1 UNK         0.0814 
    109 H109       23.4330    1.1617   -3.9744 H         1 UNK         0.0814 
    110 H110       25.0222    1.1427   -7.6744 H         1 UNK         0.2983 
    111 H111       23.8523    3.0197   -9.5413 H         1 UNK         0.0947 
    112 H112       25.6967    0.6152  -10.0071 H         1 UNK         0.0806 
    113 H113       24.7248    1.4248  -11.2262 H         1 UNK         0.0806 
    114 H114       23.9373    0.5430   -9.9280 H         1 UNK         0.0806 
    115 H115       26.6582    3.3371   -7.7850 H         1 UNK         0.3000 
    116 H116       28.4359    4.6072   -7.8184 H         1 UNK         0.0850 
    117 H117       28.5375    6.6509   -9.1685 H         1 UNK         0.0810 
    118 H118       26.8907    6.4184   -8.6079 H         1 UNK         0.0810 
    119 H119       27.3187    6.0471  -10.2784 H         1 UNK         0.0810 
    120 H120       28.5791    2.0600   -9.0704 H         1 UNK         0.3040 
    121 H121       31.0191    2.4189  -10.7487 H         1 UNK         0.0766 
    122 H122       29.0302    0.0729  -10.7931 H         1 UNK         0.0812 
    123 H123       30.4452    0.2757  -11.8273 H         1 UNK         0.0812 
    124 H124       29.0738    1.3487  -12.0031 H         1 UNK         0.0812 
    125 H125       31.5165   -0.5050  -10.2977 H         1 UNK         0.3205 
    126 H126       31.6938   -0.9240   -7.4590 H         1 UNK         0.0754 
    127 H127       34.1964   -1.1580   -7.4210 H         1 UNK         0.0769 
    128 H128       33.7437    0.4976   -7.7789 H         1 UNK         0.0769 
    129 H129       34.2918   -0.5630   -9.0750 H         1 UNK         0.0769 
    130 H130       32.4026   -3.1101   -7.0137 H         1 UNK         0.2981 
    131 H131       31.7203   -5.0126   -9.1156 H         1 UNK         0.0541 
    132 H132       34.7108   -3.5652   -8.3093 H         1 UNK         0.3459 
    133 H133       35.7123   -4.8665   -8.8994 H         1 UNK         0.3459 
    134 H134       31.9484   -6.7008   -7.1867 H         1 UNK         0.0612 
    135 H135       30.6543   -5.5589   -7.1105 H         1 UNK         0.0612 
    136 H136       30.2748   -5.0943   -4.1809 H         1 UNK         0.0624 
    137 H137       30.1724   -4.0095   -5.5480 H         1 UNK         0.0624 
@<TRIPOS>BOND
     1    1    2 1    
     2    1   72 1    
     3    1   73 1    
     4    1   74 1    
     5    2    3 2    
     6    2    4 am   BACKBONE|DICT|INTERRES
     7    4    5 1    
     8    4   75 1    
     9    5    6 1    
    10    5   35 1    
    11    5   76 1    
    12    6    7 1    
    13    6   77 1    
    14    6   78 1    
    15    7    8 1    
    16    8    9 1    
    17    8   79 1    
    18    8   80 1    
    19    9   10 ar   
    20    9   14 ar   
    21   10   11 ar   
    22   10   81 1    
    23   11   12 ar   
    24   11   71 1    
    25   12   13 ar   
    26   12   82 1    
    27   13   14 ar   
    28   13   15 1    
    29   14   83 1    
    30   15   16 1    
    31   15   84 1    
    32   15   85 1    
    33   16   17 1    
    34   17   18 1    
    35   17   86 1    
    36   17   87 1    
    37   18   19 1    
    38   18   37 1    
    39   18   88 1    
    40   19   20 am   BACKBONE|DICT|INTERRES
    41   19   89 1    
    42   20   21 2    
    43   20   22 1    
    44   22   23 1    
    45   22   24 1    
    46   22   90 1    
    47   23   91 1    
    48   23   92 1    
    49   23   93 1    
    50   24   25 am   BACKBONE|DICT|INTERRES
    51   24   94 1    
    52   25   26 2    
    53   25   27 1    
    54   27   28 1    
    55   27   29 1    
    56   27   95 1    
    57   28   96 1    
    58   28   97 1    
    59   28   98 1    
    60   29   30 am   BACKBONE|DICT|INTERRES
    61   29   99 1    
    62   30   31 2    
    63   30   32 1    
    64   32   33 1    
    65   32   34 1    
    66   32  100 1    
    67   33  101 1    
    68   33  102 1    
    69   33  103 1    
    70   34   35 am   BACKBONE|DICT|INTERRES
    71   34  104 1    
    72   35   36 2    
    73   37   38 2    
    74   37   39 am   BACKBONE|DICT|INTERRES
    75   39   40 1    
    76   39  105 1    
    77   40   41 1    
    78   40   42 1    
    79   40  106 1    
    80   41  107 1    
    81   41  108 1    
    82   41  109 1    
    83   42   43 2    
    84   42   44 am   BACKBONE|DICT|INTERRES
    85   44   45 1    
    86   44  110 1    
    87   45   46 1    
    88   45   47 1    
    89   45  111 1    
    90   46  112 1    
    91   46  113 1    
    92   46  114 1    
    93   47   48 2    
    94   47   49 am   BACKBONE|DICT|INTERRES
    95   49   50 1    
    96   49  115 1    
    97   50   51 1    
    98   50   52 1    
    99   50  116 1    
   100   51  117 1    
   101   51  118 1    
   102   51  119 1    
   103   52   53 2    
   104   52   54 am   BACKBONE|DICT|INTERRES
   105   54   55 1    
   106   54  120 1    
   107   55   56 1    
   108   55   57 1    
   109   55  121 1    
   110   56  122 1    
   111   56  123 1    
   112   56  124 1    
   113   57   58 2    
   114   57   59 am   BACKBONE|DICT|INTERRES
   115   59   60 1    
   116   59  125 1    
   117   60   61 1    
   118   60   62 1    
   119   60  126 1    
   120   61  127 1    
   121   61  128 1    
   122   61  129 1    
   123   62   63 2    
   124   62   64 am   BACKBONE|DICT|INTERRES
   125   64   65 1    
   126   64  130 1    
   127   65   66 1    
   128   65   69 1    
   129   65  131 1    
   130   66   67 am   BACKBONE|DICT|INTERRES
   131   66   68 2    
   132   67  132 1    
   133   67  133 1    
   134   69   70 1    
   135   69  134 1    
   136   69  135 1    
   137   70   71 1    
   138   71  136 1    
   139   71  137 1    
@<TRIPOS>SUBSTRUCTURE
     1 UNK         1 GROUP             0       ****    0 ROOT    
