@<TRIPOS>MOLECULE
3R137
137   139    1
SMALL
USER_CHARGES


@<TRIPOS>ATOM
      1 CA         26.9726   -1.5627    4.3910 C.3       0 UNK        -0.2020 
      2 C          27.2086   -1.9704    2.9442 C.2       0 UNK         0.4855 
      3 O          26.9817   -3.1289    2.5938 O.2       0 UNK        -0.5197 
      4 N          27.6659   -1.0274    2.1087 N.am      1 UNK        -0.4892 
      5 CA         27.9133   -1.1875    0.6704 C.3       1 UNK         0.0835 
      6 C6         29.0545   -2.2027    0.3665 C.3       12 UNK        -0.0855 
      7 S7         29.8222   -1.9146   -1.2639 S.3       12 UNK        -0.2931 
      8 C8         30.1756   -3.6147   -1.8088 C.3       12 UNK         0.0378 
      9 C9         30.4767   -3.6478   -3.2988 C.ar      12 UNK        -0.0802 
     10 C10        31.7076   -3.1949   -3.7785 C.ar      12 UNK        -0.0944 
     11 C11        31.9797   -3.1880   -5.1509 C.ar      12 UNK        -0.0787 
     12 C12        31.0077   -3.6581   -6.0409 C.ar      12 UNK        -0.0862 
     13 C13        29.7746   -4.1321   -5.5768 C.ar      12 UNK        -0.0733 
     14 C14        29.5226   -4.1268   -4.1998 C.ar      12 UNK        -0.0832 
     15 C15        28.7584   -4.6727   -6.5843 C.3       12 UNK         0.0240 
     16 S16        27.0076   -4.5075   -6.0719 S.3       12 UNK        -0.2522 
     17 C17        26.2113   -4.0628   -7.6550 C.3       12 UNK        -0.0967 
     18 CA         25.9435   -2.5489   -7.8689 C.3       5 UNK         0.0660 
     19 N          24.8678   -2.0233   -7.0240 N.am      5 UNK        -0.4015 
     20 C          23.8104   -1.3490   -7.5027 C.2       4 UNK         0.4946 
     21 O          23.5816   -1.1924   -8.7033 O.2       4 UNK        -0.5353 
     22 CA         22.8341   -0.7221   -6.4899 C.3       4 UNK         0.0277 
     23 CB         21.6922   -1.7013   -6.1724 C.3       4 UNK        -0.1981 
     24 N          23.4520   -0.2806   -5.2386 N.am      4 UNK        -0.4209 
     25 C          24.4529    0.6047   -5.1272 C.2       3 UNK         0.4942 
     26 O          24.9829    1.1754   -6.0797 O.2       3 UNK        -0.5208 
     27 CA         24.9966    0.8519   -3.7098 C.3       3 UNK         0.0250 
     28 CB         24.2119    1.9833   -3.0275 C.3       3 UNK        -0.1990 
     29 N          25.0091   -0.3287   -2.8340 N.am      3 UNK        -0.4232 
     30 C          25.4903   -1.5441   -3.1354 C.2       2 UNK         0.4993 
     31 O          25.9495   -1.8490   -4.2387 O.2       2 UNK        -0.5286 
     32 CA         25.4738   -2.5739   -1.9963 C.3       2 UNK         0.0209 
     33 CB         25.5597   -4.0217   -2.5099 C.3       2 UNK        -0.1931 
     34 N          26.5947   -2.3150   -1.0951 N.am      2 UNK        -0.4546 
     35 C          26.5896   -1.4201   -0.0996 C.2       1 UNK         0.5154 
     36 O          25.5918   -0.7573    0.1993 O.2       1 UNK        -0.5181 
     37 C          27.2109   -1.6864   -7.7349 C.2       5 UNK         0.5014 
     38 O          27.8891   -1.4744   -8.7392 O.2       5 UNK        -0.5248 
     39 N          27.5178   -1.1968   -6.5232 N.am      6 UNK        -0.4434 
     40 CA         28.7412   -0.4501   -6.2227 C.3       6 UNK         0.0363 
     41 CB         28.8629   -0.2349   -4.7080 C.3       6 UNK        -0.1936 
     42 C          28.8585    0.8794   -6.9836 C.2       6 UNK         0.5081 
     43 O          29.9635    1.2329   -7.3958 O.2       6 UNK        -0.5248 
     44 N          27.7315    1.5746   -7.2004 N.am      7 UNK        -0.4718 
     45 CA         27.6804    2.7946   -8.0118 C.3       7 UNK         0.0273 
     46 CB         26.3540    3.5309   -7.7695 C.3       7 UNK        -0.1935 
     47 C          27.8755    2.5143   -9.5112 C.2       7 UNK         0.5018 
     48 O          28.5230    3.3101  -10.1909 O.2       7 UNK        -0.5186 
     49 N          27.3409    1.3826   -9.9934 N.am      8 UNK        -0.4240 
     50 CA         27.4872    0.9176  -11.3761 C.3       8 UNK         0.0235 
     51 CB         26.4449   -0.1736  -11.6717 C.3       8 UNK        -0.2000 
     52 C          28.9107    0.4155  -11.6683 C.2       8 UNK         0.4941 
     53 O          29.4512    0.7072  -12.7353 O.2       8 UNK        -0.5273 
     54 N          29.5030   -0.2960  -10.6991 N.am      9 UNK        -0.4262 
     55 CA         30.8948   -0.7531  -10.7103 C.3       9 UNK         0.0264 
     56 CB         31.0793   -1.8029   -9.6003 C.3       9 UNK        -0.1955 
     57 C          31.9197    0.3839  -10.5348 C.2       9 UNK         0.5031 
     58 O          33.0957    0.1712  -10.8336 O.2       9 UNK        -0.5390 
     59 N          31.4655    1.5449  -10.0364 N.am      10 UNK        -0.4204 
     60 CA         32.2463    2.7248   -9.6481 C.3       10 UNK         0.0237 
     61 CB         32.9117    3.3840  -10.8752 C.3       10 UNK        -0.1985 
     62 C          33.2349    2.4017   -8.5115 C.2       10 UNK         0.4970 
     63 O          34.4075    2.7754   -8.5798 O.2       10 UNK        -0.4914 
     64 N          32.7344    1.6889   -7.4945 N.am      11 UNK        -0.4285 
     65 CA         33.4975    1.2289   -6.3267 C.3       11 UNK         0.1007 
     66 C          33.8942    2.3564   -5.3272 C.2       11 UNK         0.5703 
     67 N          33.2658    3.5261   -5.3657 N.am      11 UNK        -0.7361 
     68 O          34.7967    2.1743   -4.5138 O.2       11 UNK        -0.4986 
     69 C69        32.7632    0.0567   -5.6182 C.3       12 UNK        -0.0947 
     70 S70        33.9168   -1.1670   -4.9153 S.3       12 UNK        -0.2240 
     71 C71        33.3339   -2.7187   -5.6784 C.3       12 UNK         0.0194 
     72 H72        27.5787   -2.1760    5.0573 H         1 UNK         0.0906 
     73 H73        27.2264   -0.5177    4.5684 H         1 UNK         0.0906 
     74 H74        25.9250   -1.7063    4.6546 H         1 UNK         0.0906 
     75 H75        27.7971   -0.0883    2.4599 H         1 UNK         0.3140 
     76 H76        28.2577   -0.2058    0.3399 H         1 UNK         0.1085 
     77 H77        29.8475   -2.0971    1.1087 H         1 UNK         0.0836 
     78 H78        28.7028   -3.2317    0.4606 H         1 UNK         0.0836 
     79 H79        31.0254   -4.0067   -1.2479 H         1 UNK         0.0731 
     80 H80        29.3279   -4.2631   -1.5817 H         1 UNK         0.0731 
     81 H81        32.4502   -2.8364   -3.0790 H         1 UNK         0.1312 
     82 H82        31.2177   -3.6696   -7.1017 H         1 UNK         0.1406 
     83 H83        28.5818   -4.4981   -3.8236 H         1 UNK         0.1631 
     84 H84        28.9045   -4.1605   -7.5363 H         1 UNK         0.0717 
     85 H85        28.9701   -5.7267   -6.7673 H         1 UNK         0.0717 
     86 H86        26.8109   -4.4520   -8.4798 H         1 UNK         0.0934 
     87 H87        25.2672   -4.6064   -7.7153 H         1 UNK         0.0934 
     88 H88        25.6489   -2.4559   -8.9163 H         1 UNK         0.0739 
     89 H89        25.0101   -2.0862   -6.0207 H         1 UNK         0.3093 
     90 H90        22.4041    0.1627   -6.9639 H         1 UNK         0.0818 
     91 H91        20.9332   -1.2373   -5.5422 H         1 UNK         0.0819 
     92 H92        21.1939   -2.0290   -7.0861 H         1 UNK         0.0819 
     93 H93        22.0555   -2.5941   -5.6617 H         1 UNK         0.0819 
     94 H94        23.1002   -0.6985   -4.3899 H         1 UNK         0.3041 
     95 H95        26.0287    1.1849   -3.8159 H         1 UNK         0.0784 
     96 H96        24.2029    2.8816   -3.6469 H         1 UNK         0.0793 
     97 H97        23.1739    1.7025   -2.8445 H         1 UNK         0.0793 
     98 H98        24.6593    2.2570   -2.0717 H         1 UNK         0.0793 
     99 H99        24.7058   -0.1769   -1.8800 H         1 UNK         0.3024 
    100 H100       24.5307   -2.4698   -1.4543 H         1 UNK         0.1171 
    101 H101       25.4883   -4.7377   -1.6911 H         1 UNK         0.0786 
    102 H102       24.7466   -4.2383   -3.2040 H         1 UNK         0.0786 
    103 H103       26.4928   -4.2097   -3.0378 H         1 UNK         0.0786 
    104 H104       27.4758   -2.7507   -1.3302 H         1 UNK         0.2977 
    105 H105       26.9369   -1.4486   -5.7251 H         1 UNK         0.3127 
    106 H106       29.5807   -1.0742   -6.5341 H         1 UNK         0.0770 
    107 H107       28.0490    0.3723   -4.3187 H         1 UNK         0.0814 
    108 H108       29.7942    0.2715   -4.4559 H         1 UNK         0.0814 
    109 H109       28.8576   -1.1849   -4.1735 H         1 UNK         0.0814 
    110 H110       26.8514    1.2395   -6.8177 H         1 UNK         0.2983 
    111 H111       28.4934    3.4498   -7.6902 H         1 UNK         0.0947 
    112 H112       26.3237    4.4716   -8.3209 H         1 UNK         0.0806 
    113 H113       26.2190    3.7685   -6.7141 H         1 UNK         0.0806 
    114 H114       25.4971    2.9372   -8.0905 H         1 UNK         0.0806 
    115 H115       26.8658    0.7655   -9.3504 H         1 UNK         0.3000 
    116 H116       27.2905    1.7623  -12.0403 H         1 UNK         0.0850 
    117 H117       26.5085   -0.4991  -12.7109 H         1 UNK         0.0810 
    118 H118       25.4306    0.1912  -11.5084 H         1 UNK         0.0810 
    119 H119       26.5873   -1.0554  -11.0467 H         1 UNK         0.0810 
    120 H120       28.9432   -0.5720   -9.8925 H         1 UNK         0.3040 
    121 H121       31.0898   -1.2281  -11.6740 H         1 UNK         0.0766 
    122 H122       30.3968   -2.6431   -9.7299 H         1 UNK         0.0812 
    123 H123       30.9007   -1.3765   -8.6125 H         1 UNK         0.0812 
    124 H124       32.0936   -2.2041   -9.6039 H         1 UNK         0.0812 
    125 H125       30.4846    1.5819   -9.7934 H         1 UNK         0.3205 
    126 H126       31.5314    3.4398   -9.2378 H         1 UNK         0.0754 
    127 H127       33.3893    4.3252  -10.6003 H         1 UNK         0.0769 
    128 H128       32.1777    3.6070  -11.6497 H         1 UNK         0.0769 
    129 H129       33.6798    2.7468  -11.3143 H         1 UNK         0.0769 
    130 H130       31.7405    1.4629   -7.4979 H         1 UNK         0.2981 
    131 H131       34.4371    0.8422   -6.7265 H         1 UNK         0.0541 
    132 H132       32.5242    3.6855   -6.0281 H         1 UNK         0.3459 
    133 H133       33.5343    4.2525   -4.7210 H         1 UNK         0.3459 
    134 H134       32.1055    0.4175   -4.8263 H         1 UNK         0.0612 
    135 H135       32.1116   -0.4631   -6.3224 H         1 UNK         0.0612 
    136 H136       34.0692   -3.4989   -5.4791 H         1 UNK         0.0624 
    137 H137       33.3078   -2.5883   -6.7616 H         1 UNK         0.0624 
@<TRIPOS>BOND
     1    1    2 1    
     2    1   72 1    
     3    1   73 1    
     4    1   74 1    
     5    2    3 2    
     6    2    4 am   BACKBONE|DICT|INTERRES
     7    4    5 1    
     8    4   75 1    
     9    5    6 1    
    10    5   35 1    
    11    5   76 1    
    12    6    7 1    
    13    6   77 1    
    14    6   78 1    
    15    7    8 1    
    16    8    9 1    
    17    8   79 1    
    18    8   80 1    
    19    9   10 ar   
    20    9   14 ar   
    21   10   11 ar   
    22   10   81 1    
    23   11   12 ar   
    24   11   71 1    
    25   12   13 ar   
    26   12   82 1    
    27   13   14 ar   
    28   13   15 1    
    29   14   83 1    
    30   15   16 1    
    31   15   84 1    
    32   15   85 1    
    33   16   17 1    
    34   17   18 1    
    35   17   86 1    
    36   17   87 1    
    37   18   19 1    
    38   18   37 1    
    39   18   88 1    
    40   19   20 am   BACKBONE|DICT|INTERRES
    41   19   89 1    
    42   20   21 2    
    43   20   22 1    
    44   22   23 1    
    45   22   24 1    
    46   22   90 1    
    47   23   91 1    
    48   23   92 1    
    49   23   93 1    
    50   24   25 am   BACKBONE|DICT|INTERRES
    51   24   94 1    
    52   25   26 2    
    53   25   27 1    
    54   27   28 1    
    55   27   29 1    
    56   27   95 1    
    57   28   96 1    
    58   28   97 1    
    59   28   98 1    
    60   29   30 am   BACKBONE|DICT|INTERRES
    61   29   99 1    
    62   30   31 2    
    63   30   32 1    
    64   32   33 1    
    65   32   34 1    
    66   32  100 1    
    67   33  101 1    
    68   33  102 1    
    69   33  103 1    
    70   34   35 am   BACKBONE|DICT|INTERRES
    71   34  104 1    
    72   35   36 2    
    73   37   38 2    
    74   37   39 am   BACKBONE|DICT|INTERRES
    75   39   40 1    
    76   39  105 1    
    77   40   41 1    
    78   40   42 1    
    79   40  106 1    
    80   41  107 1    
    81   41  108 1    
    82   41  109 1    
    83   42   43 2    
    84   42   44 am   BACKBONE|DICT|INTERRES
    85   44   45 1    
    86   44  110 1    
    87   45   46 1    
    88   45   47 1    
    89   45  111 1    
    90   46  112 1    
    91   46  113 1    
    92   46  114 1    
    93   47   48 2    
    94   47   49 am   BACKBONE|DICT|INTERRES
    95   49   50 1    
    96   49  115 1    
    97   50   51 1    
    98   50   52 1    
    99   50  116 1    
   100   51  117 1    
   101   51  118 1    
   102   51  119 1    
   103   52   53 2    
   104   52   54 am   BACKBONE|DICT|INTERRES
   105   54   55 1    
   106   54  120 1    
   107   55   56 1    
   108   55   57 1    
   109   55  121 1    
   110   56  122 1    
   111   56  123 1    
   112   56  124 1    
   113   57   58 2    
   114   57   59 am   BACKBONE|DICT|INTERRES
   115   59   60 1    
   116   59  125 1    
   117   60   61 1    
   118   60   62 1    
   119   60  126 1    
   120   61  127 1    
   121   61  128 1    
   122   61  129 1    
   123   62   63 2    
   124   62   64 am   BACKBONE|DICT|INTERRES
   125   64   65 1    
   126   64  130 1    
   127   65   66 1    
   128   65   69 1    
   129   65  131 1    
   130   66   67 am   BACKBONE|DICT|INTERRES
   131   66   68 2    
   132   67  132 1    
   133   67  133 1    
   134   69   70 1    
   135   69  134 1    
   136   69  135 1    
   137   70   71 1    
   138   71  136 1    
   139   71  137 1    
@<TRIPOS>SUBSTRUCTURE
     1 UNK         1 GROUP             0       ****    0 ROOT    
