@<TRIPOS>MOLECULE
3R137
137   139    1
SMALL
USER_CHARGES


@<TRIPOS>ATOM
      1 CA         26.8212   -7.9650   -3.1883 C.3       0 UNK        -0.2020 
      2 C          26.4784   -6.8391   -2.2241 C.2       0 UNK         0.4855 
      3 O          25.5739   -6.9909   -1.4018 O.2       0 UNK        -0.5197 
      4 N          27.2018   -5.7163   -2.3122 N.am      1 UNK        -0.4892 
      5 CA         26.9788   -4.5098   -1.5059 C.3       1 UNK         0.0835 
      6 C6         28.1984   -3.5548   -1.5362 C.3       12 UNK        -0.0855 
      7 S7         29.7505   -4.3571   -1.0044 S.3       12 UNK        -0.2931 
      8 C8         30.8810   -3.9220   -2.3773 C.3       12 UNK         0.0378 
      9 C9         31.2916   -2.4481   -2.4757 C.ar      12 UNK        -0.0802 
     10 C10        32.1930   -2.0771   -3.4788 C.ar      12 UNK        -0.0944 
     11 C11        32.6076   -0.7490   -3.6231 C.ar      12 UNK        -0.0787 
     12 C12        32.1021    0.2244   -2.7554 C.ar      12 UNK        -0.0862 
     13 C13        31.1954   -0.1254   -1.7513 C.ar      12 UNK        -0.0733 
     14 C14        30.8113   -1.4597   -1.6068 C.ar      12 UNK        -0.0832 
     15 C15        30.6299    0.9281   -0.8092 C.3       12 UNK         0.0240 
     16 S16        29.3843    1.9884   -1.6116 S.3       12 UNK        -0.2522 
     17 C17        28.1483    0.7969   -2.2465 C.3       12 UNK        -0.0967 
     18 CA         28.2362    0.6264   -3.7860 C.3       5 UNK         0.0660 
     19 N          27.5156   -0.5604   -4.2597 N.am      5 UNK        -0.4015 
     20 C          27.7655   -1.1560   -5.4380 C.2       4 UNK         0.4946 
     21 O          28.6984   -0.8408   -6.1719 O.2       4 UNK        -0.5353 
     22 CA         26.8074   -2.2633   -5.9152 C.3       4 UNK         0.0277 
     23 CB         27.3779   -3.6570   -5.6110 C.3       4 UNK        -0.1981 
     24 N          25.4542   -2.1364   -5.3674 N.am      4 UNK        -0.4209 
     25 C          24.6102   -1.1508   -5.7114 C.2       3 UNK         0.4942 
     26 O          24.8738   -0.3057   -6.5649 O.2       3 UNK        -0.5208 
     27 CA         23.2737   -1.0385   -4.9552 C.3       3 UNK         0.0250 
     28 CB         22.1514   -1.7238   -5.7500 C.3       3 UNK        -0.1990 
     29 N          23.2991   -1.5741   -3.5923 N.am      3 UNK        -0.4232 
     30 C          24.1362   -1.1997   -2.6147 C.2       2 UNK         0.4993 
     31 O          25.0004   -0.3299   -2.7486 O.2       2 UNK        -0.5286 
     32 CA         24.0520   -1.9791   -1.2876 C.3       2 UNK         0.0209 
     33 CB         22.7494   -2.7947   -1.1181 C.3       2 UNK        -0.1931 
     34 N          25.2193   -2.8510   -1.0909 N.am      2 UNK        -0.4546 
     35 C          25.7056   -3.7590   -1.9531 C.2       1 UNK         0.5154 
     36 O          25.2228   -3.9728   -3.0700 O.2       1 UNK        -0.5181 
     37 C          27.7456    1.8857   -4.5320 C.2       5 UNK         0.5014 
     38 O          28.5629    2.7332   -4.8931 O.2       5 UNK        -0.5248 
     39 N          26.4249    1.9830   -4.7616 N.am      6 UNK        -0.4434 
     40 CA         25.7930    3.0756   -5.5088 C.3       6 UNK         0.0363 
     41 CB         24.2637    2.9808   -5.3904 C.3       6 UNK        -0.1936 
     42 C          26.2322    3.1106   -6.9827 C.2       6 UNK         0.5081 
     43 O          26.5475    4.1836   -7.4987 O.2       6 UNK        -0.5248 
     44 N          26.3104    1.9351   -7.6204 N.am      7 UNK        -0.4718 
     45 CA         26.8487    1.7240   -8.9673 C.3       7 UNK         0.0273 
     46 CB         26.2919    0.3990   -9.5202 C.3       7 UNK        -0.1935 
     47 C          28.3912    1.7618   -8.9888 C.2       7 UNK         0.5018 
     48 O          29.0241    0.8388   -9.5061 O.2       7 UNK        -0.5186 
     49 N          28.9754    2.8374   -8.4430 N.am      8 UNK        -0.4240 
     50 CA         30.4146    3.0449   -8.2359 C.3       8 UNK         0.0235 
     51 CB         30.6248    4.3694   -7.4849 C.3       8 UNK        -0.2000 
     52 C          31.2796    3.0091   -9.5098 C.2       8 UNK         0.4941 
     53 O          32.4869    2.7927   -9.4070 O.2       8 UNK        -0.5273 
     54 N          30.6591    3.1973  -10.6838 N.am      9 UNK        -0.4262 
     55 CA         31.2817    3.0079  -11.9969 C.3       9 UNK         0.0264 
     56 CB         30.3317    3.5241  -13.0896 C.3       9 UNK        -0.1955 
     57 C          31.6766    1.5432  -12.2714 C.2       9 UNK         0.5031 
     58 O          32.6542    1.3117  -12.9845 O.2       9 UNK        -0.5390 
     59 N          30.9260    0.5926  -11.6972 N.am      10 UNK        -0.4204 
     60 CA         31.2387   -0.8362  -11.7006 C.3       10 UNK         0.0237 
     61 CB         29.9548   -1.6423  -11.9632 C.3       10 UNK        -0.1985 
     62 C          31.8733   -1.2455  -10.3633 C.2       10 UNK         0.4970 
     63 O          32.8758   -1.9602  -10.3652 O.2       10 UNK        -0.4914 
     64 N          31.2831   -0.7748   -9.2557 N.am      11 UNK        -0.4285 
     65 CA         31.6835   -1.0487   -7.8681 C.3       11 UNK         0.1007 
     66 C          31.5641   -2.5504   -7.4623 C.2       11 UNK         0.5703 
     67 N          30.6121   -3.2931   -8.0169 N.am      11 UNK        -0.7361 
     68 O          32.3370   -3.0615   -6.6568 O.2       11 UNK        -0.4986 
     69 C69        33.0376   -0.3728   -7.4889 C.3       12 UNK        -0.0947 
     70 S70        32.8982    0.6692   -5.9948 S.3       12 UNK        -0.2240 
     71 C71        33.6280   -0.3700   -4.6892 C.3       12 UNK         0.0194 
     72 H72        25.9559   -8.2056   -3.8053 H         1 UNK         0.0906 
     73 H73        27.6455   -7.6994   -3.8500 H         1 UNK         0.0906 
     74 H74        27.1054   -8.8598   -2.6351 H         1 UNK         0.0906 
     75 H75        27.9359   -5.6512   -3.0011 H         1 UNK         0.3140 
     76 H76        26.8217   -4.8291   -0.4728 H         1 UNK         0.1085 
     77 H77        28.0268   -2.7088   -0.8685 H         1 UNK         0.0836 
     78 H78        28.3336   -3.1248   -2.5298 H         1 UNK         0.0836 
     79 H79        30.4255   -4.2285   -3.3204 H         1 UNK         0.0731 
     80 H80        31.7847   -4.5227   -2.2653 H         1 UNK         0.0731 
     81 H81        32.5849   -2.8334   -4.1442 H         1 UNK         0.1312 
     82 H82        32.4109    1.2552   -2.8649 H         1 UNK         0.1406 
     83 H83        30.1319   -1.7114   -0.8076 H         1 UNK         0.1631 
     84 H84        31.4424    1.5566   -0.4418 H         1 UNK         0.0717 
     85 H85        30.1842    0.4639    0.0720 H         1 UNK         0.0717 
     86 H86        28.2925   -0.1632   -1.7512 H         1 UNK         0.0934 
     87 H87        27.1539    1.1322   -1.9455 H         1 UNK         0.0934 
     88 H88        29.2903    0.4887   -4.0407 H         1 UNK         0.0739 
     89 H89        26.6870   -0.8194   -3.7350 H         1 UNK         0.3093 
     90 H90        26.7335   -2.1712   -7.0012 H         1 UNK         0.0818 
     91 H91        28.3683   -3.7762   -6.0524 H         1 UNK         0.0819 
     92 H92        26.7430   -4.4433   -6.0196 H         1 UNK         0.0819 
     93 H93        27.4769   -3.8301   -4.5424 H         1 UNK         0.0819 
     94 H94        25.1858   -2.7944   -4.6393 H         1 UNK         0.3041 
     95 H95        23.0358    0.0237   -4.8765 H         1 UNK         0.0784 
     96 H96        22.0915   -1.3246   -6.7637 H         1 UNK         0.0793 
     97 H97        22.3140   -2.7993   -5.8322 H         1 UNK         0.0793 
     98 H98        21.1788   -1.5643   -5.2839 H         1 UNK         0.0793 
     99 H99        22.6608   -2.3315   -3.3961 H         1 UNK         0.3024 
    100 H100       24.0778   -1.2260   -0.4980 H         1 UNK         0.1171 
    101 H101       22.6890   -3.2234   -0.1176 H         1 UNK         0.0786 
    102 H102       21.8672   -2.1654   -1.2454 H         1 UNK         0.0786 
    103 H103       22.6795   -3.6199   -1.8281 H         1 UNK         0.0786 
    104 H104       25.7052   -2.7201   -0.2142 H         1 UNK         0.2977 
    105 H105       25.8184    1.2504   -4.4188 H         1 UNK         0.3127 
    106 H106       26.1095    4.0135   -5.0474 H         1 UNK         0.0770 
    107 H107       23.8720    2.0881   -5.8774 H         1 UNK         0.0814 
    108 H108       23.7868    3.8401   -5.8636 H         1 UNK         0.0814 
    109 H109       23.9434    2.9659   -4.3485 H         1 UNK         0.0814 
    110 H110       25.9846    1.1024   -7.1339 H         1 UNK         0.2983 
    111 H111       26.4977    2.5307   -9.6144 H         1 UNK         0.0947 
    112 H112       26.6184    0.2323  -10.5475 H         1 UNK         0.0806 
    113 H113       25.2018    0.3960   -9.5217 H         1 UNK         0.0806 
    114 H114       26.6267   -0.4533   -8.9274 H         1 UNK         0.0806 
    115 H115       28.3555    3.5375   -8.0469 H         1 UNK         0.3000 
    116 H116       30.7614    2.2311   -7.5958 H         1 UNK         0.0850 
    117 H117       31.6825    4.5379   -7.2773 H         1 UNK         0.0810 
    118 H118       30.1063    4.3672   -6.5258 H         1 UNK         0.0810 
    119 H119       30.2633    5.2217   -8.0614 H         1 UNK         0.0810 
    120 H120       29.6699    3.3983  -10.6701 H         1 UNK         0.3040 
    121 H121       32.1949    3.6062  -12.0244 H         1 UNK         0.0766 
    122 H122       30.1038    4.5812  -12.9515 H         1 UNK         0.0812 
    123 H123       29.3896    2.9743  -13.1006 H         1 UNK         0.0812 
    124 H124       30.7816    3.4183  -14.0779 H         1 UNK         0.0812 
    125 H125       30.1633    0.8792  -11.0906 H         1 UNK         0.3205 
    126 H126       31.9506   -1.0673  -12.4959 H         1 UNK         0.0754 
    127 H127       30.1583   -2.7140  -11.9552 H         1 UNK         0.0769 
    128 H128       29.5318   -1.4003  -12.9383 H         1 UNK         0.0769 
    129 H129       29.1886   -1.4482  -11.2111 H         1 UNK         0.0769 
    130 H130       30.4365   -0.2169   -9.3505 H         1 UNK         0.2981 
    131 H131       30.9052   -0.5567   -7.2895 H         1 UNK         0.0541 
    132 H132       29.9642   -2.8855   -8.6708 H         1 UNK         0.3459 
    133 H133       30.5410   -4.2665   -7.7692 H         1 UNK         0.3459 
    134 H134       33.8512   -1.0925   -7.3899 H         1 UNK         0.0612 
    135 H135       33.3603    0.2996   -8.2853 H         1 UNK         0.0612 
    136 H136       34.0822   -1.2627   -5.1207 H         1 UNK         0.0624 
    137 H137       34.4416    0.1845   -4.2197 H         1 UNK         0.0624 
@<TRIPOS>BOND
     1    1    2 1    
     2    1   72 1    
     3    1   73 1    
     4    1   74 1    
     5    2    3 2    
     6    2    4 am   BACKBONE|DICT|INTERRES
     7    4    5 1    
     8    4   75 1    
     9    5    6 1    
    10    5   35 1    
    11    5   76 1    
    12    6    7 1    
    13    6   77 1    
    14    6   78 1    
    15    7    8 1    
    16    8    9 1    
    17    8   79 1    
    18    8   80 1    
    19    9   10 ar   
    20    9   14 ar   
    21   10   11 ar   
    22   10   81 1    
    23   11   12 ar   
    24   11   71 1    
    25   12   13 ar   
    26   12   82 1    
    27   13   14 ar   
    28   13   15 1    
    29   14   83 1    
    30   15   16 1    
    31   15   84 1    
    32   15   85 1    
    33   16   17 1    
    34   17   18 1    
    35   17   86 1    
    36   17   87 1    
    37   18   19 1    
    38   18   37 1    
    39   18   88 1    
    40   19   20 am   BACKBONE|DICT|INTERRES
    41   19   89 1    
    42   20   21 2    
    43   20   22 1    
    44   22   23 1    
    45   22   24 1    
    46   22   90 1    
    47   23   91 1    
    48   23   92 1    
    49   23   93 1    
    50   24   25 am   BACKBONE|DICT|INTERRES
    51   24   94 1    
    52   25   26 2    
    53   25   27 1    
    54   27   28 1    
    55   27   29 1    
    56   27   95 1    
    57   28   96 1    
    58   28   97 1    
    59   28   98 1    
    60   29   30 am   BACKBONE|DICT|INTERRES
    61   29   99 1    
    62   30   31 2    
    63   30   32 1    
    64   32   33 1    
    65   32   34 1    
    66   32  100 1    
    67   33  101 1    
    68   33  102 1    
    69   33  103 1    
    70   34   35 am   BACKBONE|DICT|INTERRES
    71   34  104 1    
    72   35   36 2    
    73   37   38 2    
    74   37   39 am   BACKBONE|DICT|INTERRES
    75   39   40 1    
    76   39  105 1    
    77   40   41 1    
    78   40   42 1    
    79   40  106 1    
    80   41  107 1    
    81   41  108 1    
    82   41  109 1    
    83   42   43 2    
    84   42   44 am   BACKBONE|DICT|INTERRES
    85   44   45 1    
    86   44  110 1    
    87   45   46 1    
    88   45   47 1    
    89   45  111 1    
    90   46  112 1    
    91   46  113 1    
    92   46  114 1    
    93   47   48 2    
    94   47   49 am   BACKBONE|DICT|INTERRES
    95   49   50 1    
    96   49  115 1    
    97   50   51 1    
    98   50   52 1    
    99   50  116 1    
   100   51  117 1    
   101   51  118 1    
   102   51  119 1    
   103   52   53 2    
   104   52   54 am   BACKBONE|DICT|INTERRES
   105   54   55 1    
   106   54  120 1    
   107   55   56 1    
   108   55   57 1    
   109   55  121 1    
   110   56  122 1    
   111   56  123 1    
   112   56  124 1    
   113   57   58 2    
   114   57   59 am   BACKBONE|DICT|INTERRES
   115   59   60 1    
   116   59  125 1    
   117   60   61 1    
   118   60   62 1    
   119   60  126 1    
   120   61  127 1    
   121   61  128 1    
   122   61  129 1    
   123   62   63 2    
   124   62   64 am   BACKBONE|DICT|INTERRES
   125   64   65 1    
   126   64  130 1    
   127   65   66 1    
   128   65   69 1    
   129   65  131 1    
   130   66   67 am   BACKBONE|DICT|INTERRES
   131   66   68 2    
   132   67  132 1    
   133   67  133 1    
   134   69   70 1    
   135   69  134 1    
   136   69  135 1    
   137   70   71 1    
   138   71  136 1    
   139   71  137 1    
@<TRIPOS>SUBSTRUCTURE
     1 UNK         1 GROUP             0       ****    0 ROOT    
