@<TRIPOS>MOLECULE
3R137
137   139    1
SMALL
USER_CHARGES


@<TRIPOS>ATOM
      1 CA         28.7140   -2.6973    2.5696 C.3       0 UNK        -0.2020 
      2 C          28.4023   -1.5436    1.6282 C.2       0 UNK         0.4855 
      3 O          27.6557   -0.6378    1.9988 O.2       0 UNK        -0.5197 
      4 N          28.9763   -1.5703    0.4176 N.am      1 UNK        -0.4892 
      5 CA         28.8033   -0.5606   -0.6362 C.3       1 UNK         0.0835 
      6 C6         29.7770   -0.7544   -1.8343 C.3       12 UNK        -0.0855 
      7 S7         31.5124   -1.1100   -1.3740 S.3       12 UNK        -0.2931 
      8 C8         31.5669   -2.9333   -1.2085 C.3       12 UNK         0.0378 
      9 C9         31.4899   -3.6736   -2.5378 C.ar      12 UNK        -0.0802 
     10 C10        32.6581   -4.1173   -3.1664 C.ar      12 UNK        -0.0944 
     11 C11        32.5926   -4.8322   -4.3672 C.ar      12 UNK        -0.0787 
     12 C12        31.3460   -5.0836   -4.9489 C.ar      12 UNK        -0.0862 
     13 C13        30.1714   -4.6440   -4.3324 C.ar      12 UNK        -0.0733 
     14 C14        30.2499   -3.9658   -3.1148 C.ar      12 UNK        -0.0832 
     15 C15        28.8163   -4.9179   -4.9701 C.3       12 UNK         0.0240 
     16 S16        28.6275   -4.0702   -6.5699 S.3       12 UNK        -0.2522 
     17 C17        28.6578   -2.3060   -6.0969 C.3       12 UNK        -0.0967 
     18 CA         27.7634   -1.4754   -7.0479 C.3       5 UNK         0.0660 
     19 N          26.3456   -1.8188   -6.9083 N.am      5 UNK        -0.4015 
     20 C          25.4034   -1.5456   -7.8190 C.2       4 UNK         0.4946 
     21 O          25.6224   -0.9651   -8.8825 O.2       4 UNK        -0.5353 
     22 CA         23.9668   -1.9643   -7.4628 C.3       4 UNK         0.0277 
     23 CB         23.7800   -3.4802   -7.6382 C.3       4 UNK        -0.1981 
     24 N          23.5797   -1.5699   -6.1046 N.am      4 UNK        -0.4209 
     25 C          23.4668   -0.2971   -5.7001 C.2       3 UNK         0.4942 
     26 O          23.6630    0.6705   -6.4304 O.2       3 UNK        -0.5208 
     27 CA         23.0997   -0.0446   -4.2304 C.3       3 UNK         0.0250 
     28 CB         21.5746   -0.0975   -4.0452 C.3       3 UNK        -0.1990 
     29 N          23.7413   -0.9298   -3.2534 N.am      3 UNK        -0.4232 
     30 C          25.0499   -1.2053   -3.1564 C.2       2 UNK         0.4993 
     31 O          25.8980   -0.8964   -3.9987 O.2       2 UNK        -0.5286 
     32 CA         25.4601   -2.0067   -1.9096 C.3       2 UNK         0.0209 
     33 CB         25.3334   -3.5136   -2.1893 C.3       2 UNK        -0.1931 
     34 N          26.8214   -1.7297   -1.4447 N.am      2 UNK        -0.4546 
     35 C          27.3453   -0.5308   -1.1398 C.2       1 UNK         0.5154 
     36 O          26.7361    0.5382   -1.2019 O.2       1 UNK        -0.5181 
     37 C          27.9919    0.0406   -6.8924 C.2       5 UNK         0.5014 
     38 O          28.8279    0.6018   -7.6042 O.2       5 UNK        -0.5248 
     39 N          27.2129    0.6878   -6.0124 N.am      6 UNK        -0.4434 
     40 CA         27.1750    2.1420   -5.8513 C.3       6 UNK         0.0363 
     41 CB         26.3444    2.5066   -4.6117 C.3       6 UNK        -0.1936 
     42 C          26.6451    2.8656   -7.1030 C.2       6 UNK         0.5081 
     43 O          27.2450    3.8567   -7.5168 O.2       6 UNK        -0.5248 
     44 N          25.5604    2.3511   -7.7031 N.am      7 UNK        -0.4718 
     45 CA         24.9713    2.8645   -8.9456 C.3       7 UNK         0.0273 
     46 CB         23.5937    2.2253   -9.1810 C.3       7 UNK        -0.1935 
     47 C          25.8763    2.6538  -10.1688 C.2       7 UNK         0.5018 
     48 O          25.9628    3.5466  -11.0129 O.2       7 UNK        -0.5186 
     49 N          26.5572    1.4993  -10.2299 N.am      8 UNK        -0.4240 
     50 CA         27.5960    1.2054  -11.2232 C.3       8 UNK         0.0235 
     51 CB         27.9580   -0.2871  -11.1574 C.3       8 UNK        -0.2000 
     52 C          28.8618    2.0657  -11.0474 C.2       8 UNK         0.4941 
     53 O          29.5966    2.2510  -12.0182 O.2       8 UNK        -0.5273 
     54 N          29.0852    2.5618   -9.8204 N.am      9 UNK        -0.4262 
     55 CA         30.2219    3.3612   -9.3576 C.3       9 UNK         0.0264 
     56 CB         30.2303    4.7492  -10.0326 C.3       9 UNK        -0.1955 
     57 C          31.5536    2.6036   -9.4983 C.2       9 UNK         0.5031 
     58 O          32.5451    3.1775   -9.9554 O.2       9 UNK        -0.5390 
     59 N          31.5457    1.3211   -9.1155 N.am      10 UNK        -0.4204 
     60 CA         32.6878    0.4193   -9.2161 C.3       10 UNK         0.0237 
     61 CB         32.5594   -0.4300  -10.4924 C.3       10 UNK        -0.1985 
     62 C          32.7323   -0.4675   -7.9720 C.2       10 UNK         0.4970 
     63 O          31.6930   -0.9918   -7.5685 O.2       10 UNK        -0.4914 
     64 N          33.9353   -0.6270   -7.4082 N.am      11 UNK        -0.4285 
     65 CA         34.2847   -1.4685   -6.2510 C.3       11 UNK         0.1007 
     66 C          33.6628   -1.0350   -4.8891 C.2       11 UNK         0.5703 
     67 N          32.3961   -0.6507   -4.8345 N.am      11 UNK        -0.7361 
     68 O          34.3577   -1.0141   -3.8762 O.2       11 UNK        -0.4986 
     69 C69        34.0771   -2.9775   -6.5539 C.3       12 UNK        -0.0947 
     70 S70        35.0570   -4.0556   -5.4557 S.3       12 UNK        -0.2240 
     71 C71        33.8593   -5.3604   -5.0311 C.3       12 UNK         0.0194 
     72 H72        27.7956   -3.2156    2.8440 H         1 UNK         0.0906 
     73 H73        29.1785   -2.3221    3.4811 H         1 UNK         0.0906 
     74 H74        29.3908   -3.4230    2.1190 H         1 UNK         0.0906 
     75 H75        29.6174   -2.3161    0.1973 H         1 UNK         0.3140 
     76 H76        29.0142    0.4117   -0.1850 H         1 UNK         0.1085 
     77 H77        29.7882    0.1631   -2.4261 H         1 UNK         0.0836 
     78 H78        29.4241   -1.5141   -2.5266 H         1 UNK         0.0836 
     79 H79        32.4986   -3.1939   -0.7036 H         1 UNK         0.0731 
     80 H80        30.7752   -3.2861   -0.5497 H         1 UNK         0.0731 
     81 H81        33.6215   -3.9118   -2.7196 H         1 UNK         0.1312 
     82 H82        31.2841   -5.6245   -5.8834 H         1 UNK         0.1406 
     83 H83        29.3389   -3.6706   -2.6164 H         1 UNK         0.1631 
     84 H84        28.0000   -4.6211   -4.3103 H         1 UNK         0.0717 
     85 H85        28.7085   -5.9920   -5.1268 H         1 UNK         0.0717 
     86 H86        28.3374   -2.1869   -5.0600 H         1 UNK         0.0934 
     87 H87        29.6952   -1.9701   -6.1395 H         1 UNK         0.0934 
     88 H88        28.0598   -1.7203   -8.0702 H         1 UNK         0.0739 
     89 H89        26.0705   -2.2374   -6.0316 H         1 UNK         0.3093 
     90 H90        23.2963   -1.4573   -8.1604 H         1 UNK         0.0818 
     91 H91        24.0532   -3.7912   -8.6477 H         1 UNK         0.0819 
     92 H92        24.3977   -4.0512   -6.9438 H         1 UNK         0.0819 
     93 H93        22.7414   -3.7722   -7.4820 H         1 UNK         0.0819 
     94 H94        23.4024   -2.3063   -5.4373 H         1 UNK         0.3041 
     95 H95        23.4268    0.9684   -3.9907 H         1 UNK         0.0784 
     96 H96        21.0720    0.5675   -4.7494 H         1 UNK         0.0793 
     97 H97        21.1814   -1.1018   -4.2083 H         1 UNK         0.0793 
     98 H98        21.2837    0.2192   -3.0433 H         1 UNK         0.0793 
     99 H99        23.1347   -1.2749   -2.5233 H         1 UNK         0.3024 
    100 H100       24.7869   -1.7389   -1.0922 H         1 UNK         0.1171 
    101 H101       24.3197   -3.7745   -2.4964 H         1 UNK         0.0786 
    102 H102       26.0061   -3.8323   -2.9865 H         1 UNK         0.0786 
    103 H103       25.5599   -4.1046   -1.3016 H         1 UNK         0.0786 
    104 H104       27.4127   -2.5357   -1.3166 H         1 UNK         0.2977 
    105 H105       26.5941    0.1420   -5.4154 H         1 UNK         0.3127 
    106 H106       28.1998    2.4796   -5.6818 H         1 UNK         0.0770 
    107 H107       25.3008    2.2165   -4.7275 H         1 UNK         0.0814 
    108 H108       26.3655    3.5820   -4.4318 H         1 UNK         0.0814 
    109 H109       26.7298    2.0182   -3.7161 H         1 UNK         0.0814 
    110 H110       25.0718    1.5741   -7.2625 H         1 UNK         0.2983 
    111 H111       24.8292    3.9408   -8.8261 H         1 UNK         0.0947 
    112 H112       23.6610    1.1391   -9.2566 H         1 UNK         0.0806 
    113 H113       23.1438    2.5914  -10.1048 H         1 UNK         0.0806 
    114 H114       22.9046    2.4619   -8.3703 H         1 UNK         0.0806 
    115 H115       26.3585    0.7762   -9.5437 H         1 UNK         0.3000 
    116 H116       27.1870    1.4178  -12.2132 H         1 UNK         0.0850 
    117 H117       28.6971   -0.5437  -11.9176 H         1 UNK         0.0810 
    118 H118       27.0844   -0.9165  -11.3278 H         1 UNK         0.0810 
    119 H119       28.3811   -0.5552  -10.1890 H         1 UNK         0.0810 
    120 H120       28.4355    2.2925   -9.0919 H         1 UNK         0.3040 
    121 H121       30.0689    3.5147   -8.2883 H         1 UNK         0.0766 
    122 H122       30.4244    4.6790  -11.1032 H         1 UNK         0.0812 
    123 H123       31.0032    5.3874   -9.6029 H         1 UNK         0.0812 
    124 H124       29.2763    5.2588   -9.8965 H         1 UNK         0.0812 
    125 H125       30.7106    0.9318   -8.6844 H         1 UNK         0.3205 
    126 H126       33.6155    0.9936   -9.2669 H         1 UNK         0.0754 
    127 H127       33.3987   -1.1196  -10.5909 H         1 UNK         0.0769 
    128 H128       32.5462    0.1971  -11.3842 H         1 UNK         0.0769 
    129 H129       31.6443   -1.0241  -10.4895 H         1 UNK         0.0769 
    130 H130       34.7137   -0.1226   -7.8073 H         1 UNK         0.2981 
    131 H131       35.3594   -1.3137   -6.1421 H         1 UNK         0.0541 
    132 H132       31.8359   -0.6906   -5.6784 H         1 UNK         0.3459 
    133 H133       31.9957   -0.3927   -3.9469 H         1 UNK         0.3459 
    134 H134       33.0178   -3.2334   -6.5101 H         1 UNK         0.0612 
    135 H135       34.3928   -3.1999   -7.5742 H         1 UNK         0.0612 
    136 H136       33.6193   -5.9164   -5.9387 H         1 UNK         0.0624 
    137 H137       34.3404   -6.0692   -4.3561 H         1 UNK         0.0624 
@<TRIPOS>BOND
     1    1    2 1    
     2    1   72 1    
     3    1   73 1    
     4    1   74 1    
     5    2    3 2    
     6    2    4 am   BACKBONE|DICT|INTERRES
     7    4    5 1    
     8    4   75 1    
     9    5    6 1    
    10    5   35 1    
    11    5   76 1    
    12    6    7 1    
    13    6   77 1    
    14    6   78 1    
    15    7    8 1    
    16    8    9 1    
    17    8   79 1    
    18    8   80 1    
    19    9   10 ar   
    20    9   14 ar   
    21   10   11 ar   
    22   10   81 1    
    23   11   12 ar   
    24   11   71 1    
    25   12   13 ar   
    26   12   82 1    
    27   13   14 ar   
    28   13   15 1    
    29   14   83 1    
    30   15   16 1    
    31   15   84 1    
    32   15   85 1    
    33   16   17 1    
    34   17   18 1    
    35   17   86 1    
    36   17   87 1    
    37   18   19 1    
    38   18   37 1    
    39   18   88 1    
    40   19   20 am   BACKBONE|DICT|INTERRES
    41   19   89 1    
    42   20   21 2    
    43   20   22 1    
    44   22   23 1    
    45   22   24 1    
    46   22   90 1    
    47   23   91 1    
    48   23   92 1    
    49   23   93 1    
    50   24   25 am   BACKBONE|DICT|INTERRES
    51   24   94 1    
    52   25   26 2    
    53   25   27 1    
    54   27   28 1    
    55   27   29 1    
    56   27   95 1    
    57   28   96 1    
    58   28   97 1    
    59   28   98 1    
    60   29   30 am   BACKBONE|DICT|INTERRES
    61   29   99 1    
    62   30   31 2    
    63   30   32 1    
    64   32   33 1    
    65   32   34 1    
    66   32  100 1    
    67   33  101 1    
    68   33  102 1    
    69   33  103 1    
    70   34   35 am   BACKBONE|DICT|INTERRES
    71   34  104 1    
    72   35   36 2    
    73   37   38 2    
    74   37   39 am   BACKBONE|DICT|INTERRES
    75   39   40 1    
    76   39  105 1    
    77   40   41 1    
    78   40   42 1    
    79   40  106 1    
    80   41  107 1    
    81   41  108 1    
    82   41  109 1    
    83   42   43 2    
    84   42   44 am   BACKBONE|DICT|INTERRES
    85   44   45 1    
    86   44  110 1    
    87   45   46 1    
    88   45   47 1    
    89   45  111 1    
    90   46  112 1    
    91   46  113 1    
    92   46  114 1    
    93   47   48 2    
    94   47   49 am   BACKBONE|DICT|INTERRES
    95   49   50 1    
    96   49  115 1    
    97   50   51 1    
    98   50   52 1    
    99   50  116 1    
   100   51  117 1    
   101   51  118 1    
   102   51  119 1    
   103   52   53 2    
   104   52   54 am   BACKBONE|DICT|INTERRES
   105   54   55 1    
   106   54  120 1    
   107   55   56 1    
   108   55   57 1    
   109   55  121 1    
   110   56  122 1    
   111   56  123 1    
   112   56  124 1    
   113   57   58 2    
   114   57   59 am   BACKBONE|DICT|INTERRES
   115   59   60 1    
   116   59  125 1    
   117   60   61 1    
   118   60   62 1    
   119   60  126 1    
   120   61  127 1    
   121   61  128 1    
   122   61  129 1    
   123   62   63 2    
   124   62   64 am   BACKBONE|DICT|INTERRES
   125   64   65 1    
   126   64  130 1    
   127   65   66 1    
   128   65   69 1    
   129   65  131 1    
   130   66   67 am   BACKBONE|DICT|INTERRES
   131   66   68 2    
   132   67  132 1    
   133   67  133 1    
   134   69   70 1    
   135   69  134 1    
   136   69  135 1    
   137   70   71 1    
   138   71  136 1    
   139   71  137 1    
@<TRIPOS>SUBSTRUCTURE
     1 UNK         1 GROUP             0       ****    0 ROOT    
