@<TRIPOS>MOLECULE
3R137
137   139    1
SMALL
USER_CHARGES


@<TRIPOS>ATOM
      1 CA         30.7243    0.4616   -1.1824 C.3       0 UNK        -0.2020 
      2 C          29.6659   -0.5006   -1.6967 C.2       0 UNK         0.4855 
      3 O          29.1389   -0.2983   -2.7892 O.2       0 UNK        -0.5197 
      4 N          29.3416   -1.5417   -0.9170 N.am      1 UNK        -0.4892 
      5 CA         28.4255   -2.6321   -1.2923 C.3       1 UNK         0.0835 
      6 C6         28.4509   -3.8128   -0.2820 C.3       12 UNK        -0.0855 
      7 S7         30.1326   -4.2907    0.2648 S.3       12 UNK        -0.2931 
      8 C8         30.5949   -5.6076   -0.9135 C.3       12 UNK         0.0378 
      9 C9         30.5719   -5.1391   -2.3636 C.ar      12 UNK        -0.0802 
     10 C10        31.2440   -3.9729   -2.7477 C.ar      12 UNK        -0.0944 
     11 C11        31.1362   -3.4870   -4.0536 C.ar      12 UNK        -0.0787 
     12 C12        30.3982   -4.2097   -4.9945 C.ar      12 UNK        -0.0862 
     13 C13        29.7645   -5.4034   -4.6371 C.ar      12 UNK        -0.0733 
     14 C14        29.8504   -5.8607   -3.3193 C.ar      12 UNK        -0.0832 
     15 C15        28.9739   -6.1884   -5.6743 C.3       12 UNK         0.0240 
     16 S16        27.1820   -6.2071   -5.3340 S.3       12 UNK        -0.2522 
     17 C17        26.7693   -4.4325   -5.2253 C.3       12 UNK        -0.0967 
     18 CA         26.1583   -3.8430   -6.5187 C.3       5 UNK         0.0660 
     19 N          25.3743   -2.6428   -6.2089 N.am      5 UNK        -0.4015 
     20 C          24.6362   -1.9436   -7.0818 C.2       4 UNK         0.4946 
     21 O          24.4462   -2.2890   -8.2489 O.2       4 UNK        -0.5353 
     22 CA         24.0508   -0.6064   -6.5962 C.3       4 UNK         0.0277 
     23 CB         22.5893   -0.7918   -6.1585 C.3       4 UNK        -0.1981 
     24 N          24.7911    0.0626   -5.5187 N.am      4 UNK        -0.4209 
     25 C          26.0944    0.3769   -5.4973 C.2       3 UNK         0.4942 
     26 O          26.9176   -0.0122   -6.3246 O.2       3 UNK        -0.5208 
     27 CA         26.5724    1.2503   -4.3304 C.3       3 UNK         0.0250 
     28 CB         26.0059    2.6817   -4.4119 C.3       3 UNK        -0.1990 
     29 N          26.3601    0.6398   -3.0151 N.am      3 UNK        -0.4232 
     30 C          25.2093    0.3676   -2.3796 C.2       2 UNK         0.4993 
     31 O          24.0974    0.6449   -2.8341 O.2       2 UNK        -0.5286 
     32 CA         25.3200   -0.3326   -1.0074 C.3       2 UNK         0.0209 
     33 CB         24.0896   -1.2093   -0.6874 C.3       2 UNK        -0.1931 
     34 N          26.5701   -1.0891   -0.8362 N.am      2 UNK        -0.4546 
     35 C          26.9817   -2.1517   -1.5478 C.2       1 UNK         0.5154 
     36 O          26.3003   -2.7096   -2.4077 O.2       1 UNK        -0.5181 
     37 C          27.2317   -3.5923   -7.6074 C.2       5 UNK         0.5014 
     38 O          27.5264   -4.5028   -8.3830 O.2       5 UNK        -0.5248 
     39 N          27.7574   -2.3613   -7.6827 N.am      6 UNK        -0.4434 
     40 CA         28.6424   -1.8804   -8.7419 C.3       6 UNK         0.0363 
     41 CB         30.0585   -1.6618   -8.1779 C.3       6 UNK        -0.1936 
     42 C          28.0394   -0.6211   -9.3887 C.2       6 UNK         0.5081 
     43 O          28.7628    0.3427   -9.6499 O.2       6 UNK        -0.5248 
     44 N          26.7201   -0.6581   -9.6367 N.am      7 UNK        -0.4718 
     45 CA         25.9090    0.3482  -10.3311 C.3       7 UNK         0.0273 
     46 CB         26.1542    0.2448  -11.8543 C.3       7 UNK        -0.1935 
     47 C          26.0910    1.7685   -9.7560 C.2       7 UNK         0.5018 
     48 O          25.8057    1.9834   -8.5782 O.2       7 UNK        -0.5186 
     49 N          26.5558    2.7065  -10.5901 N.am      8 UNK        -0.4240 
     50 CA         26.8849    4.0794  -10.2049 C.3       8 UNK         0.0235 
     51 CB         26.5128    5.0176  -11.3664 C.3       8 UNK        -0.2000 
     52 C          28.3686    4.2525   -9.8293 C.2       8 UNK         0.4941 
     53 O          28.7295    5.3227   -9.3374 O.2       8 UNK        -0.5273 
     54 N          29.2095    3.2370  -10.0824 N.am      9 UNK        -0.4262 
     55 CA         30.6476    3.2766   -9.8083 C.3       9 UNK         0.0264 
     56 CB         31.3833    2.2651  -10.7030 C.3       9 UNK        -0.1955 
     57 C          30.9637    3.0235   -8.3282 C.2       9 UNK         0.5031 
     58 O          31.8937    3.6391   -7.8059 O.2       9 UNK        -0.5390 
     59 N          30.2017    2.1223   -7.6855 N.am      10 UNK        -0.4204 
     60 CA         30.2695    1.7748   -6.2552 C.3       10 UNK         0.0237 
     61 CB         29.7495    2.9529   -5.4033 C.3       10 UNK        -0.1985 
     62 C          31.6632    1.2905   -5.7923 C.2       10 UNK         0.4970 
     63 O          32.0524    1.5473   -4.6520 O.2       10 UNK        -0.4914 
     64 N          32.3945    0.6240   -6.6981 N.am      11 UNK        -0.4285 
     65 CA         33.8042    0.2144   -6.5579 C.3       11 UNK         0.1007 
     66 C          34.8227    1.3981   -6.5195 C.2       11 UNK         0.5703 
     67 N          34.4462    2.6257   -6.8594 N.am      11 UNK        -0.7361 
     68 O          35.9957    1.1977   -6.2122 O.2       11 UNK        -0.4986 
     69 C69        34.0474   -0.8127   -5.4126 C.3       12 UNK        -0.0947 
     70 S70        33.1294   -2.3746   -5.6231 S.3       12 UNK        -0.2240 
     71 C71        31.7746   -2.1587   -4.4302 C.3       12 UNK         0.0194 
     72 H72        31.5297    0.5523   -1.9115 H         1 UNK         0.0906 
     73 H73        30.2910    1.4500   -1.0321 H         1 UNK         0.0906 
     74 H74        31.1557    0.1290   -0.2386 H         1 UNK         0.0906 
     75 H75        29.8174   -1.6726   -0.0347 H         1 UNK         0.3140 
     76 H76        28.7709   -3.0090   -2.2557 H         1 UNK         0.1085 
     77 H77        27.8871   -3.5531    0.6162 H         1 UNK         0.0836 
     78 H78        27.9511   -4.6853   -0.7076 H         1 UNK         0.0836 
     79 H79        31.5991   -5.9594   -0.6735 H         1 UNK         0.0731 
     80 H80        29.9264   -6.4575   -0.7667 H         1 UNK         0.0731 
     81 H81        31.8028   -3.4128   -2.0104 H         1 UNK         0.1312 
     82 H82        30.3139   -3.8378   -6.0050 H         1 UNK         0.1406 
     83 H83        29.3354   -6.7697   -3.0384 H         1 UNK         0.1631 
     84 H84        29.1468   -5.7913   -6.6750 H         1 UNK         0.0717 
     85 H85        29.3362   -7.2171   -5.6934 H         1 UNK         0.0717 
     86 H86        26.0352   -4.3668   -4.4210 H         1 UNK         0.0934 
     87 H87        27.6175   -3.8403   -4.8803 H         1 UNK         0.0934 
     88 H88        25.4526   -4.5695   -6.9275 H         1 UNK         0.0739 
     89 H89        25.4747   -2.2722   -5.2746 H         1 UNK         0.3093 
     90 H90        24.0675    0.0717   -7.4516 H         1 UNK         0.0818 
     91 H91        22.1171    0.1653   -5.9360 H         1 UNK         0.0819 
     92 H92        22.0007   -1.2657   -6.9456 H         1 UNK         0.0819 
     93 H93        22.5121   -1.4186   -5.2691 H         1 UNK         0.0819 
     94 H94        24.2466    0.3746   -4.7178 H         1 UNK         0.3041 
     95 H95        27.6543    1.3258   -4.4336 H         1 UNK         0.0784 
     96 H96        26.2213    3.1269   -5.3844 H         1 UNK         0.0793 
     97 H97        24.9243    2.7088   -4.2798 H         1 UNK         0.0793 
     98 H98        26.4522    3.3256   -3.6542 H         1 UNK         0.0793 
     99 H99        27.2186    0.2993   -2.5928 H         1 UNK         0.3024 
    100 H100       25.3473    0.4721   -0.2707 H         1 UNK         0.1171 
    101 H101       24.1892   -1.6947    0.2834 H         1 UNK         0.0786 
    102 H102       23.1796   -0.6089   -0.6551 H         1 UNK         0.0786 
    103 H103       23.9364   -1.9856   -1.4376 H         1 UNK         0.0786 
    104 H104       27.2242   -0.7085   -0.1653 H         1 UNK         0.2977 
    105 H105       27.4162   -1.6324   -7.0549 H         1 UNK         0.3127 
    106 H106       28.7143   -2.6153   -9.5460 H         1 UNK         0.0770 
    107 H107       30.0417   -1.0338   -7.2894 H         1 UNK         0.0814 
    108 H108       30.7142   -1.1920   -8.9118 H         1 UNK         0.0814 
    109 H109       30.5213   -2.6096   -7.9080 H         1 UNK         0.0814 
    110 H110       26.2036   -1.4656   -9.3080 H         1 UNK         0.2983 
    111 H111       24.8668    0.0835  -10.1451 H         1 UNK         0.0947 
    112 H112       25.5105    0.9280  -12.4104 H         1 UNK         0.0806 
    113 H113       25.9289   -0.7590  -12.2150 H         1 UNK         0.0806 
    114 H114       27.1896    0.4603  -12.1214 H         1 UNK         0.0806 
    115 H115       26.7547    2.4427  -11.5445 H         1 UNK         0.3000 
    116 H116       26.2946    4.3697   -9.3329 H         1 UNK         0.0850 
    117 H117       26.7069    6.0592  -11.1060 H         1 UNK         0.0810 
    118 H118       25.4539    4.9408  -11.6144 H         1 UNK         0.0810 
    119 H119       27.0864    4.7950  -12.2670 H         1 UNK         0.0810 
    120 H120       28.8334    2.3491  -10.3945 H         1 UNK         0.3040 
    121 H121       31.0209    4.2722  -10.0591 H         1 UNK         0.0766 
    122 H122       31.2054    2.4685  -11.7590 H         1 UNK         0.0812 
    123 H123       31.0749    1.2387  -10.5038 H         1 UNK         0.0812 
    124 H124       32.4609    2.3168  -10.5415 H         1 UNK         0.0812 
    125 H125       29.5064    1.6245   -8.2354 H         1 UNK         0.3205 
    126 H126       29.5876    0.9372   -6.1045 H         1 UNK         0.0754 
    127 H127       30.4155    3.8147   -5.4579 H         1 UNK         0.0769 
    128 H128       29.6674    2.6728   -4.3522 H         1 UNK         0.0769 
    129 H129       28.7616    3.2736   -5.7330 H         1 UNK         0.0769 
    130 H130       31.9961    0.4823   -7.6134 H         1 UNK         0.2981 
    131 H131       34.0371   -0.2974   -7.4921 H         1 UNK         0.0541 
    132 H132       33.4895    2.8382   -7.1281 H         1 UNK         0.3459 
    133 H133       35.1290    3.3656   -6.8378 H         1 UNK         0.3459 
    134 H134       35.1015   -1.0921   -5.3754 H         1 UNK         0.0612 
    135 H135       33.8305   -0.3720   -4.4392 H         1 UNK         0.0612 
    136 H136       32.1483   -1.6561   -3.5370 H         1 UNK         0.0624 
    137 H137       31.0161   -1.5019   -4.8576 H         1 UNK         0.0624 
@<TRIPOS>BOND
     1    1    2 1    
     2    1   72 1    
     3    1   73 1    
     4    1   74 1    
     5    2    3 2    
     6    2    4 am   BACKBONE|DICT|INTERRES
     7    4    5 1    
     8    4   75 1    
     9    5    6 1    
    10    5   35 1    
    11    5   76 1    
    12    6    7 1    
    13    6   77 1    
    14    6   78 1    
    15    7    8 1    
    16    8    9 1    
    17    8   79 1    
    18    8   80 1    
    19    9   10 ar   
    20    9   14 ar   
    21   10   11 ar   
    22   10   81 1    
    23   11   12 ar   
    24   11   71 1    
    25   12   13 ar   
    26   12   82 1    
    27   13   14 ar   
    28   13   15 1    
    29   14   83 1    
    30   15   16 1    
    31   15   84 1    
    32   15   85 1    
    33   16   17 1    
    34   17   18 1    
    35   17   86 1    
    36   17   87 1    
    37   18   19 1    
    38   18   37 1    
    39   18   88 1    
    40   19   20 am   BACKBONE|DICT|INTERRES
    41   19   89 1    
    42   20   21 2    
    43   20   22 1    
    44   22   23 1    
    45   22   24 1    
    46   22   90 1    
    47   23   91 1    
    48   23   92 1    
    49   23   93 1    
    50   24   25 am   BACKBONE|DICT|INTERRES
    51   24   94 1    
    52   25   26 2    
    53   25   27 1    
    54   27   28 1    
    55   27   29 1    
    56   27   95 1    
    57   28   96 1    
    58   28   97 1    
    59   28   98 1    
    60   29   30 am   BACKBONE|DICT|INTERRES
    61   29   99 1    
    62   30   31 2    
    63   30   32 1    
    64   32   33 1    
    65   32   34 1    
    66   32  100 1    
    67   33  101 1    
    68   33  102 1    
    69   33  103 1    
    70   34   35 am   BACKBONE|DICT|INTERRES
    71   34  104 1    
    72   35   36 2    
    73   37   38 2    
    74   37   39 am   BACKBONE|DICT|INTERRES
    75   39   40 1    
    76   39  105 1    
    77   40   41 1    
    78   40   42 1    
    79   40  106 1    
    80   41  107 1    
    81   41  108 1    
    82   41  109 1    
    83   42   43 2    
    84   42   44 am   BACKBONE|DICT|INTERRES
    85   44   45 1    
    86   44  110 1    
    87   45   46 1    
    88   45   47 1    
    89   45  111 1    
    90   46  112 1    
    91   46  113 1    
    92   46  114 1    
    93   47   48 2    
    94   47   49 am   BACKBONE|DICT|INTERRES
    95   49   50 1    
    96   49  115 1    
    97   50   51 1    
    98   50   52 1    
    99   50  116 1    
   100   51  117 1    
   101   51  118 1    
   102   51  119 1    
   103   52   53 2    
   104   52   54 am   BACKBONE|DICT|INTERRES
   105   54   55 1    
   106   54  120 1    
   107   55   56 1    
   108   55   57 1    
   109   55  121 1    
   110   56  122 1    
   111   56  123 1    
   112   56  124 1    
   113   57   58 2    
   114   57   59 am   BACKBONE|DICT|INTERRES
   115   59   60 1    
   116   59  125 1    
   117   60   61 1    
   118   60   62 1    
   119   60  126 1    
   120   61  127 1    
   121   61  128 1    
   122   61  129 1    
   123   62   63 2    
   124   62   64 am   BACKBONE|DICT|INTERRES
   125   64   65 1    
   126   64  130 1    
   127   65   66 1    
   128   65   69 1    
   129   65  131 1    
   130   66   67 am   BACKBONE|DICT|INTERRES
   131   66   68 2    
   132   67  132 1    
   133   67  133 1    
   134   69   70 1    
   135   69  134 1    
   136   69  135 1    
   137   70   71 1    
   138   71  136 1    
   139   71  137 1    
@<TRIPOS>SUBSTRUCTURE
     1 UNK         1 GROUP             0       ****    0 ROOT    
