@<TRIPOS>MOLECULE
3R137
137   139    1
SMALL
USER_CHARGES


@<TRIPOS>ATOM
      1 CA         26.8312   -4.1885    2.3726 C.3       0 UNK        -0.2020 
      2 C          26.8169   -4.2826    0.8542 C.2       0 UNK         0.4855 
      3 O          26.1903   -5.1906    0.3079 O.2       0 UNK        -0.5197 
      4 N          27.4992   -3.3466    0.1779 N.am      1 UNK        -0.4892 
      5 CA         27.6337   -3.2489   -1.2861 C.3       1 UNK         0.0835 
      6 C6         28.4490   -4.4138   -1.9166 C.3       12 UNK        -0.0855 
      7 S7         30.1270   -4.5433   -1.1999 S.3       12 UNK        -0.2931 
      8 C8         31.2096   -4.0648   -2.5966 C.3       12 UNK         0.0378 
      9 C9         31.0978   -2.6107   -3.0623 C.ar      12 UNK        -0.0802 
     10 C10        31.4883   -2.2910   -4.3665 C.ar      12 UNK        -0.0944 
     11 C11        31.4147   -0.9754   -4.8355 C.ar      12 UNK        -0.0787 
     12 C12        30.9038    0.0242   -4.0043 C.ar      12 UNK        -0.0862 
     13 C13        30.5011   -0.2779   -2.7023 C.ar      12 UNK        -0.0733 
     14 C14        30.6439   -1.5844   -2.2248 C.ar      12 UNK        -0.0832 
     15 C15        29.8974    0.7937   -1.8077 C.3       12 UNK         0.0240 
     16 S16        28.1127    0.5066   -1.5850 S.3       12 UNK        -0.2522 
     17 C17        27.3408    1.7662   -2.6534 C.3       12 UNK        -0.0967 
     18 CA         27.5145    1.5649   -4.1837 C.3       5 UNK         0.0660 
     19 N          27.2564    0.1992   -4.6399 N.am      5 UNK        -0.4015 
     20 C          27.6478   -0.2884   -5.8272 C.2       4 UNK         0.4946 
     21 O          28.3247    0.3378   -6.6453 O.2       4 UNK        -0.5353 
     22 CA         27.1753   -1.7075   -6.1816 C.3       4 UNK         0.0277 
     23 CB         28.1588   -2.7483   -5.6294 C.3       4 UNK        -0.1981 
     24 N          25.8209   -1.9921   -5.6982 N.am      4 UNK        -0.4209 
     25 C          24.7222   -1.3723   -6.1585 C.2       3 UNK         0.4942 
     26 O          24.7410   -0.5224   -7.0464 O.2       3 UNK        -0.5208 
     27 CA         23.3784   -1.7087   -5.4921 C.3       3 UNK         0.0250 
     28 CB         22.7054   -2.8893   -6.2090 C.3       3 UNK        -0.1990 
     29 N          23.4813   -2.0004   -4.0622 N.am      3 UNK        -0.4232 
     30 C          24.0162   -1.1962   -3.1330 C.2       2 UNK         0.4993 
     31 O          24.4859   -0.0814   -3.3741 O.2       2 UNK        -0.5286 
     32 CA         24.0878   -1.7494   -1.6994 C.3       2 UNK         0.0209 
     33 CB         23.1096   -2.9145   -1.4253 C.3       2 UNK        -0.1931 
     34 N          25.4509   -2.1455   -1.3292 N.am      2 UNK        -0.4546 
     35 C          26.2802   -2.9795   -1.9808 C.2       1 UNK         0.5154 
     36 O          26.0202   -3.5062   -3.0658 O.2       1 UNK        -0.5181 
     37 C          26.6111    2.5529   -4.9428 C.2       5 UNK         0.5014 
     38 O          27.1015    3.5697   -5.4335 O.2       5 UNK        -0.5248 
     39 N          25.3098    2.2303   -5.0186 N.am      6 UNK        -0.4434 
     40 CA         24.2703    3.0632   -5.6286 C.3       6 UNK         0.0363 
     41 CB         22.8886    2.4563   -5.3398 C.3       6 UNK        -0.1936 
     42 C          24.4620    3.2818   -7.1380 C.2       6 UNK         0.5081 
     43 O          24.3185    4.4118   -7.6058 O.2       6 UNK        -0.5248 
     44 N          24.7931    2.2103   -7.8714 N.am      7 UNK        -0.4718 
     45 CA         25.0728    2.2579   -9.3095 C.3       7 UNK         0.0273 
     46 CB         24.8536    0.8611   -9.9143 C.3       7 UNK        -0.1935 
     47 C          26.4921    2.7549   -9.6338 C.2       7 UNK         0.5018 
     48 O          26.7428    3.0990  -10.7894 O.2       7 UNK        -0.5186 
     49 N          27.3848    2.7604   -8.6299 N.am      8 UNK        -0.4240 
     50 CA         28.8235    3.0363   -8.7111 C.3       8 UNK         0.0235 
     51 CB         29.0878    4.5118   -9.0792 C.3       8 UNK        -0.2000 
     52 C          29.5198    2.0358   -9.6513 C.2       8 UNK         0.4941 
     53 O          30.0493    2.4237  -10.6959 O.2       8 UNK        -0.5273 
     54 N          29.4455    0.7514   -9.2766 N.am      9 UNK        -0.4262 
     55 CA         29.9865   -0.3824  -10.0307 C.3       9 UNK         0.0264 
     56 CB         29.4909   -1.6875   -9.3850 C.3       9 UNK        -0.1955 
     57 C          31.5231   -0.3607  -10.1384 C.2       9 UNK         0.5031 
     58 O          32.1960    0.3100   -9.3521 O.2       9 UNK        -0.5390 
     59 N          32.0585   -1.1198  -11.1032 N.am      10 UNK        -0.4204 
     60 CA         33.4859   -1.2075  -11.4345 C.3       10 UNK         0.0237 
     61 CB         33.6270   -1.7353  -12.8755 C.3       10 UNK        -0.1985 
     62 C          34.3114   -2.0283  -10.4186 C.2       10 UNK         0.4970 
     63 O          35.0162   -2.9618  -10.8071 O.2       10 UNK        -0.4914 
     64 N          34.2171   -1.6623   -9.1367 N.am      11 UNK        -0.4285 
     65 CA         35.0108   -2.2142   -8.0273 C.3       11 UNK         0.1007 
     66 C          36.4710   -1.6788   -7.9426 C.2       11 UNK         0.5703 
     67 N          36.8554   -0.6607   -8.7043 N.am      11 UNK        -0.7361 
     68 O          37.2771   -2.2120   -7.1836 O.2       11 UNK        -0.4986 
     69 C69        34.2623   -2.0986   -6.6719 C.3       12 UNK        -0.0947 
     70 S70        33.6926   -0.4037   -6.2858 S.3       12 UNK        -0.2240 
     71 C71        31.8857   -0.6252   -6.2374 C.3       12 UNK         0.0194 
     72 H72        27.2554   -5.0969    2.7997 H         1 UNK         0.0906 
     73 H73        27.4200   -3.3420    2.7252 H         1 UNK         0.0906 
     74 H74        25.8155   -4.0762    2.7510 H         1 UNK         0.0906 
     75 H75        27.9962   -2.6379    0.7001 H         1 UNK         0.3140 
     76 H76        28.1947   -2.3377   -1.4689 H         1 UNK         0.1085 
     77 H77        28.5380   -4.2909   -2.9961 H         1 UNK         0.0836 
     78 H78        27.9340   -5.3642   -1.7687 H         1 UNK         0.0836 
     79 H79        31.0049   -4.7373   -3.4313 H         1 UNK         0.0731 
     80 H80        32.2442   -4.2474   -2.3034 H         1 UNK         0.0731 
     81 H81        31.8626   -3.0695   -5.0158 H         1 UNK         0.1312 
     82 H82        30.8225    1.0370   -4.3737 H         1 UNK         0.1406 
     83 H83        30.3718   -1.7990   -1.2015 H         1 UNK         0.1631 
     84 H84        30.0745    1.7924   -2.2096 H         1 UNK         0.0717 
     85 H85        30.3847    0.7645   -0.8322 H         1 UNK         0.0717 
     86 H86        26.2818    1.7749   -2.3866 H         1 UNK         0.0934 
     87 H87        27.7235    2.7456   -2.3595 H         1 UNK         0.0934 
     88 H88        28.5482    1.8079   -4.4357 H         1 UNK         0.0739 
     89 H89        26.6540   -0.3587   -4.0508 H         1 UNK         0.3093 
     90 H90        27.1609   -1.7928   -7.2698 H         1 UNK         0.0818 
     91 H91        27.8175   -3.7666   -5.8159 H         1 UNK         0.0819 
     92 H92        29.1370   -2.6421   -6.0986 H         1 UNK         0.0819 
     93 H93        28.3030   -2.6282   -4.5560 H         1 UNK         0.0819 
     94 H94        25.7309   -2.6529   -4.9320 H         1 UNK         0.3041 
     95 H95        22.7322   -0.8362   -5.5973 H         1 UNK         0.0784 
     96 H96        22.5974   -2.6870   -7.2758 H         1 UNK         0.0793 
     97 H97        23.2858   -3.8074   -6.1083 H         1 UNK         0.0793 
     98 H98        21.7065   -3.0771   -5.8148 H         1 UNK         0.0793 
     99 H99        23.1633   -2.9114   -3.7647 H         1 UNK         0.3024 
    100 H100       23.8088   -0.9209   -1.0460 H         1 UNK         0.1171 
    101 H101       23.1060   -3.1746   -0.3665 H         1 UNK         0.0786 
    102 H102       22.0860   -2.6444   -1.6889 H         1 UNK         0.0786 
    103 H103       23.3726   -3.8175   -1.9777 H         1 UNK         0.0786 
    104 H104       25.7933   -1.7474   -0.4659 H         1 UNK         0.2977 
    105 H105       24.9976    1.3791   -4.5568 H         1 UNK         0.3127 
    106 H106       24.3159    4.0421   -5.1465 H         1 UNK         0.0770 
    107 H107       22.7701    1.4835   -5.8160 H         1 UNK         0.0814 
    108 H108       22.0941    3.1014   -5.7171 H         1 UNK         0.0814 
    109 H109       22.7237    2.3292   -4.2696 H         1 UNK         0.0814 
    110 H110       24.8487    1.2938   -7.4291 H         1 UNK         0.2983 
    111 H111       24.3684    2.9463   -9.7821 H         1 UNK         0.0947 
    112 H112       25.5710    0.1372   -9.5253 H         1 UNK         0.0806 
    113 H113       24.9695    0.8822  -10.9987 H         1 UNK         0.0806 
    114 H114       23.8517    0.4876   -9.7020 H         1 UNK         0.0806 
    115 H115       27.0570    2.4567   -7.7228 H         1 UNK         0.3000 
    116 H116       29.2297    2.8674   -7.7120 H         1 UNK         0.0850 
    117 H117       28.6062    5.1867   -8.3716 H         1 UNK         0.0810 
    118 H118       28.7245    4.7571  -10.0775 H         1 UNK         0.0810 
    119 H119       30.1564    4.7292   -9.0612 H         1 UNK         0.0810 
    120 H120       29.0200    0.5426   -8.3750 H         1 UNK         0.3040 
    121 H121       29.5837   -0.3228  -11.0440 H         1 UNK         0.0766 
    122 H122       29.8891   -2.5653   -9.8955 H         1 UNK         0.0812 
    123 H123       28.4041   -1.7576   -9.4302 H         1 UNK         0.0812 
    124 H124       29.7840   -1.7571   -8.3385 H         1 UNK         0.0812 
    125 H125       31.4376   -1.6728  -11.6769 H         1 UNK         0.3205 
    126 H126       33.8963   -0.1955  -11.4186 H         1 UNK         0.0754 
    127 H127       34.6728   -1.7555  -13.1858 H         1 UNK         0.0769 
    128 H128       33.0964   -1.1001  -13.5852 H         1 UNK         0.0769 
    129 H129       33.2372   -2.7493  -12.9745 H         1 UNK         0.0769 
    130 H130       33.6079   -0.8796   -8.9094 H         1 UNK         0.2981 
    131 H131       35.1226   -3.2829   -8.2199 H         1 UNK         0.0541 
    132 H132       37.8055   -0.3301   -8.6436 H         1 UNK         0.3459 
    133 H133       36.2010   -0.2089   -9.3218 H         1 UNK         0.3459 
    134 H134       33.4072   -2.7735   -6.6923 H         1 UNK         0.0612 
    135 H135       34.8842   -2.4508   -5.8470 H         1 UNK         0.0612 
    136 H136       31.4103    0.2973   -6.5752 H         1 UNK         0.0624 
    137 H137       31.5809   -1.3951   -6.9452 H         1 UNK         0.0624 
@<TRIPOS>BOND
     1    1    2 1    
     2    1   72 1    
     3    1   73 1    
     4    1   74 1    
     5    2    3 2    
     6    2    4 am   BACKBONE|DICT|INTERRES
     7    4    5 1    
     8    4   75 1    
     9    5    6 1    
    10    5   35 1    
    11    5   76 1    
    12    6    7 1    
    13    6   77 1    
    14    6   78 1    
    15    7    8 1    
    16    8    9 1    
    17    8   79 1    
    18    8   80 1    
    19    9   10 ar   
    20    9   14 ar   
    21   10   11 ar   
    22   10   81 1    
    23   11   12 ar   
    24   11   71 1    
    25   12   13 ar   
    26   12   82 1    
    27   13   14 ar   
    28   13   15 1    
    29   14   83 1    
    30   15   16 1    
    31   15   84 1    
    32   15   85 1    
    33   16   17 1    
    34   17   18 1    
    35   17   86 1    
    36   17   87 1    
    37   18   19 1    
    38   18   37 1    
    39   18   88 1    
    40   19   20 am   BACKBONE|DICT|INTERRES
    41   19   89 1    
    42   20   21 2    
    43   20   22 1    
    44   22   23 1    
    45   22   24 1    
    46   22   90 1    
    47   23   91 1    
    48   23   92 1    
    49   23   93 1    
    50   24   25 am   BACKBONE|DICT|INTERRES
    51   24   94 1    
    52   25   26 2    
    53   25   27 1    
    54   27   28 1    
    55   27   29 1    
    56   27   95 1    
    57   28   96 1    
    58   28   97 1    
    59   28   98 1    
    60   29   30 am   BACKBONE|DICT|INTERRES
    61   29   99 1    
    62   30   31 2    
    63   30   32 1    
    64   32   33 1    
    65   32   34 1    
    66   32  100 1    
    67   33  101 1    
    68   33  102 1    
    69   33  103 1    
    70   34   35 am   BACKBONE|DICT|INTERRES
    71   34  104 1    
    72   35   36 2    
    73   37   38 2    
    74   37   39 am   BACKBONE|DICT|INTERRES
    75   39   40 1    
    76   39  105 1    
    77   40   41 1    
    78   40   42 1    
    79   40  106 1    
    80   41  107 1    
    81   41  108 1    
    82   41  109 1    
    83   42   43 2    
    84   42   44 am   BACKBONE|DICT|INTERRES
    85   44   45 1    
    86   44  110 1    
    87   45   46 1    
    88   45   47 1    
    89   45  111 1    
    90   46  112 1    
    91   46  113 1    
    92   46  114 1    
    93   47   48 2    
    94   47   49 am   BACKBONE|DICT|INTERRES
    95   49   50 1    
    96   49  115 1    
    97   50   51 1    
    98   50   52 1    
    99   50  116 1    
   100   51  117 1    
   101   51  118 1    
   102   51  119 1    
   103   52   53 2    
   104   52   54 am   BACKBONE|DICT|INTERRES
   105   54   55 1    
   106   54  120 1    
   107   55   56 1    
   108   55   57 1    
   109   55  121 1    
   110   56  122 1    
   111   56  123 1    
   112   56  124 1    
   113   57   58 2    
   114   57   59 am   BACKBONE|DICT|INTERRES
   115   59   60 1    
   116   59  125 1    
   117   60   61 1    
   118   60   62 1    
   119   60  126 1    
   120   61  127 1    
   121   61  128 1    
   122   61  129 1    
   123   62   63 2    
   124   62   64 am   BACKBONE|DICT|INTERRES
   125   64   65 1    
   126   64  130 1    
   127   65   66 1    
   128   65   69 1    
   129   65  131 1    
   130   66   67 am   BACKBONE|DICT|INTERRES
   131   66   68 2    
   132   67  132 1    
   133   67  133 1    
   134   69   70 1    
   135   69  134 1    
   136   69  135 1    
   137   70   71 1    
   138   71  136 1    
   139   71  137 1    
@<TRIPOS>SUBSTRUCTURE
     1 UNK         1 GROUP             0       ****    0 ROOT    
