@<TRIPOS>MOLECULE
3R137
137   139    1
SMALL
USER_CHARGES


@<TRIPOS>ATOM
      1 CA         24.3114   -3.6842   -0.4310 C.3       0 UNK        -0.2020 
      2 C          25.6944   -3.0655   -0.5605 C.2       0 UNK         0.4855 
      3 O          25.9102   -1.9485   -0.0885 O.2       0 UNK        -0.5197 
      4 N          26.6346   -3.7771   -1.1987 N.am      1 UNK        -0.4892 
      5 CA         28.0076   -3.3172   -1.4357 C.3       1 UNK         0.0835 
      6 C6         28.9024   -4.4431   -2.0072 C.3       12 UNK        -0.0855 
      7 S7         30.6796   -4.1399   -1.7057 S.3       12 UNK        -0.2931 
      8 C8         31.4747   -5.3942   -2.7659 C.3       12 UNK         0.0378 
      9 C9         31.5587   -4.9370   -4.2154 C.ar      12 UNK        -0.0802 
     10 C10        32.6986   -4.2795   -4.6913 C.ar      12 UNK        -0.0944 
     11 C11        32.7548   -3.8208   -6.0124 C.ar      12 UNK        -0.0787 
     12 C12        31.6554   -4.0168   -6.8554 C.ar      12 UNK        -0.0862 
     13 C13        30.5169   -4.6820   -6.3928 C.ar      12 UNK        -0.0733 
     14 C14        30.4895   -5.1657   -5.0832 C.ar      12 UNK        -0.0832 
     15 C15        29.3082   -4.8796   -7.2951 C.3       12 UNK         0.0240 
     16 S16        27.8207   -4.0904   -6.5988 S.3       12 UNK        -0.2522 
     17 C17        28.1921   -2.3192   -6.8365 C.3       12 UNK        -0.0967 
     18 CA         26.8857   -1.5231   -7.0741 C.3       5 UNK         0.0660 
     19 N          26.0438   -1.4966   -5.8738 N.am      5 UNK        -0.4015 
     20 C          24.7091   -1.3885   -5.8868 C.2       4 UNK         0.4946 
     21 O          24.0466   -1.1824   -6.9042 O.2       4 UNK        -0.5353 
     22 CA         23.9951   -1.5372   -4.5379 C.3       4 UNK         0.0277 
     23 CB         23.9694   -3.0104   -4.0973 C.3       4 UNK        -0.1981 
     24 N          24.6328   -0.7211   -3.5049 N.am      4 UNK        -0.4209 
     25 C          24.3143    0.5561   -3.2514 C.2       3 UNK         0.4942 
     26 O          23.4256    1.1700   -3.8426 O.2       3 UNK        -0.5208 
     27 CA         25.1115    1.2786   -2.1510 C.3       3 UNK         0.0250 
     28 CB         24.3656    1.2040   -0.8090 C.3       3 UNK        -0.1990 
     29 N          26.4693    0.7561   -1.9836 N.am      3 UNK        -0.4232 
     30 C          27.4606    0.9554   -2.8642 C.2       2 UNK         0.4993 
     31 O          27.3396    1.6163   -3.8925 O.2       2 UNK        -0.5286 
     32 CA         28.8088    0.2779   -2.5779 C.3       2 UNK         0.0209 
     33 CB         29.7113    1.2093   -1.7542 C.3       2 UNK        -0.1931 
     34 N          28.7053   -1.0154   -1.8983 N.am      2 UNK        -0.4546 
     35 C          28.0116   -2.0709   -2.3433 C.2       1 UNK         0.5154 
     36 O          27.3634   -2.0760   -3.3947 O.2       1 UNK        -0.5181 
     37 C          27.1580   -0.1310   -7.6782 C.2       5 UNK         0.5014 
     38 O          27.7695   -0.0777   -8.7453 O.2       5 UNK        -0.5248 
     39 N          26.6816    0.9556   -7.0461 N.am      6 UNK        -0.4434 
     40 CA         26.8467    2.3622   -7.4511 C.3       6 UNK         0.0363 
     41 CB         25.9770    3.2584   -6.5528 C.3       6 UNK        -0.1936 
     42 C          26.5507    2.6884   -8.9279 C.2       6 UNK         0.5081 
     43 O          27.1551    3.6152   -9.4676 O.2       6 UNK        -0.5248 
     44 N          25.6465    1.9255   -9.5582 N.am      7 UNK        -0.4718 
     45 CA         25.3297    2.0112  -10.9872 C.3       7 UNK         0.0273 
     46 CB         24.0901    1.1500  -11.2783 C.3       7 UNK        -0.1935 
     47 C          26.4969    1.6031  -11.9091 C.2       7 UNK         0.5018 
     48 O          26.5498    2.0740  -13.0462 O.2       7 UNK        -0.5186 
     49 N          27.4000    0.7475  -11.4121 N.am      8 UNK        -0.4240 
     50 CA         28.6318    0.3366  -12.0818 C.3       8 UNK         0.0235 
     51 CB         28.8160   -1.1851  -11.9391 C.3       8 UNK        -0.2000 
     52 C          29.8229    1.1001  -11.4875 C.2       8 UNK         0.4941 
     53 O          30.5244    1.7919  -12.2267 O.2       8 UNK        -0.5273 
     54 N          30.0144    0.9798  -10.1679 N.am      9 UNK        -0.4262 
     55 CA         31.0543    1.6382   -9.3826 C.3       9 UNK         0.0264 
     56 CB         32.4514    1.0831   -9.7259 C.3       9 UNK        -0.1955 
     57 C          30.7433    1.4049   -7.9029 C.2       9 UNK         0.5031 
     58 O          30.5219    0.2602   -7.5030 O.2       9 UNK        -0.5390 
     59 N          30.7707    2.4716   -7.0959 N.am      10 UNK        -0.4204 
     60 CA         30.4872    2.4377   -5.6560 C.3       10 UNK         0.0237 
     61 CB         30.0084    3.8313   -5.2061 C.3       10 UNK        -0.1985 
     62 C          31.6773    1.9158   -4.8205 C.2       10 UNK         0.4970 
     63 O          32.0306    2.5238   -3.8092 O.2       10 UNK        -0.4914 
     64 N          32.2803    0.8073   -5.2613 N.am      11 UNK        -0.4285 
     65 CA         33.3687    0.0955   -4.5756 C.3       11 UNK         0.1007 
     66 C          32.8828   -0.9773   -3.5636 C.2       11 UNK         0.5703 
     67 N          31.6253   -1.3976   -3.5997 N.am      11 UNK        -0.7361 
     68 O          33.6600   -1.4231   -2.7231 O.2       11 UNK        -0.4986 
     69 C69        34.4117   -0.4734   -5.5756 C.3       12 UNK        -0.0947 
     70 S70        33.7075   -1.3958   -6.9885 S.3       12 UNK        -0.2240 
     71 C71        34.0071   -3.1375   -6.5454 C.3       12 UNK         0.0194 
     72 H72        24.1227   -3.9630    0.6053 H         1 UNK         0.0906 
     73 H73        24.2032   -4.5745   -1.0501 H         1 UNK         0.0906 
     74 H74        23.5494   -2.9660   -0.7326 H         1 UNK         0.0906 
     75 H75        26.3971   -4.6775   -1.5899 H         1 UNK         0.3140 
     76 H76        28.4026   -3.0347   -0.4570 H         1 UNK         0.1085 
     77 H77        28.7071   -4.5776   -3.0704 H         1 UNK         0.0836 
     78 H78        28.6584   -5.3947   -1.5321 H         1 UNK         0.0836 
     79 H79        32.4777   -5.5890   -2.3830 H         1 UNK         0.0731 
     80 H80        30.9338   -6.3390   -2.6926 H         1 UNK         0.0731 
     81 H81        33.5354   -4.1106   -4.0273 H         1 UNK         0.1312 
     82 H82        31.6900   -3.6474   -7.8714 H         1 UNK         0.1406 
     83 H83        29.6141   -5.6958   -4.7360 H         1 UNK         0.1631 
     84 H84        29.1209   -5.9484   -7.4060 H         1 UNK         0.0717 
     85 H85        29.4926   -4.4927   -8.2985 H         1 UNK         0.0717 
     86 H86        28.7334   -1.9411   -5.9670 H         1 UNK         0.0934 
     87 H87        28.8732   -2.2182   -7.6843 H         1 UNK         0.0934 
     88 H88        26.3300   -2.0516   -7.8523 H         1 UNK         0.0739 
     89 H89        26.5166   -1.6934   -4.9932 H         1 UNK         0.3093 
     90 H90        22.9602   -1.2137   -4.6714 H         1 UNK         0.0818 
     91 H91        23.5363   -3.6419   -4.8743 H         1 UNK         0.0819 
     92 H92        24.9687   -3.3938   -3.8868 H         1 UNK         0.0819 
     93 H93        23.3613   -3.1420   -3.2033 H         1 UNK         0.0819 
     94 H94        25.4195   -1.1320   -3.0179 H         1 UNK         0.3041 
     95 H95        25.1865    2.3298   -2.4389 H         1 UNK         0.0784 
     96 H96        23.3659    1.6322   -0.8949 H         1 UNK         0.0793 
     97 H97        24.2498    0.1751   -0.4665 H         1 UNK         0.0793 
     98 H98        24.8894    1.7602   -0.0315 H         1 UNK         0.0793 
     99 H99        26.6402    0.1684   -1.1776 H         1 UNK         0.3024 
    100 H100       29.2789    0.1034   -3.5465 H         1 UNK         0.1171 
    101 H101       29.3290    1.3538   -0.7431 H         1 UNK         0.0786 
    102 H102       30.7249    0.8147   -1.6791 H         1 UNK         0.0786 
    103 H103       29.7843    2.1948   -2.2159 H         1 UNK         0.0786 
    104 H104       29.2024   -1.0994   -1.0231 H         1 UNK         0.2977 
    105 H105       26.2163    0.8084   -6.1617 H         1 UNK         0.3127 
    106 H106       27.8924    2.6170   -7.2780 H         1 UNK         0.0770 
    107 H107       26.0390    4.3033   -6.8608 H         1 UNK         0.0814 
    108 H108       24.9261    2.9692   -6.5914 H         1 UNK         0.0814 
    109 H109       26.2965    3.2219   -5.5134 H         1 UNK         0.0814 
    110 H110       25.1971    1.1891   -9.0324 H         1 UNK         0.2983 
    111 H111       25.0868    3.0516  -11.2142 H         1 UNK         0.0947 
    112 H112       24.2664    0.0982  -11.0493 H         1 UNK         0.0806 
    113 H113       23.8104    1.2119  -12.3311 H         1 UNK         0.0806 
    114 H114       23.2298    1.4819  -10.6968 H         1 UNK         0.0806 
    115 H115       27.3081    0.4568  -10.4408 H         1 UNK         0.3000 
    116 H116       28.5803    0.5697  -13.1477 H         1 UNK         0.0850 
    117 H117       29.7456   -1.5104  -12.4078 H         1 UNK         0.0810 
    118 H118       28.0026   -1.7256  -12.4231 H         1 UNK         0.0810 
    119 H119       28.8482   -1.5004  -10.8954 H         1 UNK         0.0810 
    120 H120       29.3597    0.4240   -9.6174 H         1 UNK         0.3040 
    121 H121       31.0243    2.7085   -9.5960 H         1 UNK         0.0766 
    122 H122       33.2150    1.5156   -9.0780 H         1 UNK         0.0812 
    123 H123       32.7363    1.3100  -10.7529 H         1 UNK         0.0812 
    124 H124       32.4928    0.0005   -9.5986 H         1 UNK         0.0812 
    125 H125       31.0153    3.3718   -7.4839 H         1 UNK         0.3205 
    126 H126       29.6606    1.7439   -5.4873 H         1 UNK         0.0754 
    127 H127       29.7050    3.8207   -4.1584 H         1 UNK         0.0769 
    128 H128       29.1434    4.1609   -5.7816 H         1 UNK         0.0769 
    129 H129       30.7916    4.5826   -5.3138 H         1 UNK         0.0769 
    130 H130       31.9108    0.3595   -6.0951 H         1 UNK         0.2981 
    131 H131       33.9074    0.8231   -3.9657 H         1 UNK         0.0541 
    132 H132       31.3390   -2.1227   -2.9595 H         1 UNK         0.3459 
    133 H133       31.0122   -1.0967   -4.3367 H         1 UNK         0.3459 
    134 H134       35.1611   -1.0790   -5.0634 H         1 UNK         0.0612 
    135 H135       34.9692    0.3611   -6.0029 H         1 UNK         0.0612 
    136 H136       34.8301   -3.2143   -5.8339 H         1 UNK         0.0624 
    137 H137       34.3350   -3.6662   -7.4412 H         1 UNK         0.0624 
@<TRIPOS>BOND
     1    1    2 1    
     2    1   72 1    
     3    1   73 1    
     4    1   74 1    
     5    2    3 2    
     6    2    4 am   BACKBONE|DICT|INTERRES
     7    4    5 1    
     8    4   75 1    
     9    5    6 1    
    10    5   35 1    
    11    5   76 1    
    12    6    7 1    
    13    6   77 1    
    14    6   78 1    
    15    7    8 1    
    16    8    9 1    
    17    8   79 1    
    18    8   80 1    
    19    9   10 ar   
    20    9   14 ar   
    21   10   11 ar   
    22   10   81 1    
    23   11   12 ar   
    24   11   71 1    
    25   12   13 ar   
    26   12   82 1    
    27   13   14 ar   
    28   13   15 1    
    29   14   83 1    
    30   15   16 1    
    31   15   84 1    
    32   15   85 1    
    33   16   17 1    
    34   17   18 1    
    35   17   86 1    
    36   17   87 1    
    37   18   19 1    
    38   18   37 1    
    39   18   88 1    
    40   19   20 am   BACKBONE|DICT|INTERRES
    41   19   89 1    
    42   20   21 2    
    43   20   22 1    
    44   22   23 1    
    45   22   24 1    
    46   22   90 1    
    47   23   91 1    
    48   23   92 1    
    49   23   93 1    
    50   24   25 am   BACKBONE|DICT|INTERRES
    51   24   94 1    
    52   25   26 2    
    53   25   27 1    
    54   27   28 1    
    55   27   29 1    
    56   27   95 1    
    57   28   96 1    
    58   28   97 1    
    59   28   98 1    
    60   29   30 am   BACKBONE|DICT|INTERRES
    61   29   99 1    
    62   30   31 2    
    63   30   32 1    
    64   32   33 1    
    65   32   34 1    
    66   32  100 1    
    67   33  101 1    
    68   33  102 1    
    69   33  103 1    
    70   34   35 am   BACKBONE|DICT|INTERRES
    71   34  104 1    
    72   35   36 2    
    73   37   38 2    
    74   37   39 am   BACKBONE|DICT|INTERRES
    75   39   40 1    
    76   39  105 1    
    77   40   41 1    
    78   40   42 1    
    79   40  106 1    
    80   41  107 1    
    81   41  108 1    
    82   41  109 1    
    83   42   43 2    
    84   42   44 am   BACKBONE|DICT|INTERRES
    85   44   45 1    
    86   44  110 1    
    87   45   46 1    
    88   45   47 1    
    89   45  111 1    
    90   46  112 1    
    91   46  113 1    
    92   46  114 1    
    93   47   48 2    
    94   47   49 am   BACKBONE|DICT|INTERRES
    95   49   50 1    
    96   49  115 1    
    97   50   51 1    
    98   50   52 1    
    99   50  116 1    
   100   51  117 1    
   101   51  118 1    
   102   51  119 1    
   103   52   53 2    
   104   52   54 am   BACKBONE|DICT|INTERRES
   105   54   55 1    
   106   54  120 1    
   107   55   56 1    
   108   55   57 1    
   109   55  121 1    
   110   56  122 1    
   111   56  123 1    
   112   56  124 1    
   113   57   58 2    
   114   57   59 am   BACKBONE|DICT|INTERRES
   115   59   60 1    
   116   59  125 1    
   117   60   61 1    
   118   60   62 1    
   119   60  126 1    
   120   61  127 1    
   121   61  128 1    
   122   61  129 1    
   123   62   63 2    
   124   62   64 am   BACKBONE|DICT|INTERRES
   125   64   65 1    
   126   64  130 1    
   127   65   66 1    
   128   65   69 1    
   129   65  131 1    
   130   66   67 am   BACKBONE|DICT|INTERRES
   131   66   68 2    
   132   67  132 1    
   133   67  133 1    
   134   69   70 1    
   135   69  134 1    
   136   69  135 1    
   137   70   71 1    
   138   71  136 1    
   139   71  137 1    
@<TRIPOS>SUBSTRUCTURE
     1 UNK         1 GROUP             0       ****    0 ROOT    
