@<TRIPOS>MOLECULE
3R137
137   139    1
SMALL
USER_CHARGES


@<TRIPOS>ATOM
      1 CA         26.1098   -5.0802    1.9111 C.3       0 UNK        -0.2020 
      2 C          27.2619   -5.1035    0.9103 C.2       0 UNK         0.4855 
      3 O          27.7043   -6.1828    0.5236 O.2       0 UNK        -0.5197 
      4 N          27.7879   -3.9544    0.4623 N.am      1 UNK        -0.4892 
      5 CA         27.3488   -2.5868    0.7781 C.3       1 UNK         0.0835 
      6 C6         28.4672   -1.5527    0.4727 C.3       12 UNK        -0.0855 
      7 S7         28.8639   -1.3675   -1.3045 S.3       12 UNK        -0.2931 
      8 C8         30.3359   -2.4168   -1.4739 C.3       12 UNK         0.0378 
      9 C9         30.5734   -2.7985   -2.9273 C.ar      12 UNK        -0.0802 
     10 C10        31.6595   -2.2703   -3.6296 C.ar      12 UNK        -0.0944 
     11 C11        31.9250   -2.6691   -4.9471 C.ar      12 UNK        -0.0787 
     12 C12        31.0761   -3.6040   -5.5549 C.ar      12 UNK        -0.0862 
     13 C13        29.9864   -4.1443   -4.8613 C.ar      12 UNK        -0.0733 
     14 C14        29.7361   -3.7273   -3.5514 C.ar      12 UNK        -0.0832 
     15 C15        29.1381   -5.2518   -5.4801 C.3       12 UNK         0.0240 
     16 S16        28.1239   -4.7085   -6.8912 S.3       12 UNK        -0.2522 
     17 C17        26.8729   -3.6391   -6.0987 C.3       12 UNK        -0.0967 
     18 CA         26.5666   -2.3875   -6.9580 C.3       5 UNK         0.0660 
     19 N          25.3410   -1.6987   -6.5458 N.am      5 UNK        -0.4015 
     20 C          24.7067   -0.7803   -7.2927 C.2       4 UNK         0.4946 
     21 O          25.0566   -0.4615   -8.4285 O.2       4 UNK        -0.5353 
     22 CA         23.5005   -0.0631   -6.6617 C.3       4 UNK         0.0277 
     23 CB         22.2180   -0.8862   -6.8605 C.3       4 UNK        -0.1981 
     24 N          23.6846    0.2254   -5.2389 N.am      4 UNK        -0.4209 
     25 C          24.6264    1.0414   -4.7436 C.2       3 UNK         0.4942 
     26 O          25.3949    1.7025   -5.4400 O.2       3 UNK        -0.5208 
     27 CA         24.7740    1.0861   -3.2128 C.3       3 UNK         0.0250 
     28 CB         23.9097    2.2109   -2.6218 C.3       3 UNK        -0.1990 
     29 N          24.4596   -0.1807   -2.5399 N.am      3 UNK        -0.4232 
     30 C          25.0555   -1.3542   -2.7929 C.2       2 UNK         0.4993 
     31 O          25.9121   -1.5171   -3.6660 O.2       2 UNK        -0.5286 
     32 CA         24.6193   -2.5511   -1.9360 C.3       2 UNK         0.0209 
     33 CB         24.2829   -3.7699   -2.8132 C.3       2 UNK        -0.1931 
     34 N          25.7002   -2.9010   -1.0208 N.am      2 UNK        -0.4546 
     35 C          26.0241   -2.2062    0.0789 C.2       1 UNK         0.5154 
     36 O          25.3322   -1.2968    0.5392 O.2       1 UNK        -0.5181 
     37 C          27.7494   -1.4075   -6.9814 C.2       5 UNK         0.5014 
     38 O          28.4722   -1.3644   -7.9774 O.2       5 UNK        -0.5248 
     39 N          27.8892   -0.6059   -5.9141 N.am      6 UNK        -0.4434 
     40 CA         28.9149    0.4322   -5.8041 C.3       6 UNK         0.0363 
     41 CB         28.8419    1.1110   -4.4298 C.3       6 UNK        -0.1936 
     42 C          28.8384    1.4697   -6.9370 C.2       6 UNK         0.5081 
     43 O          29.8711    1.8056   -7.5162 O.2       6 UNK        -0.5248 
     44 N          27.6173    1.9159   -7.2634 N.am      7 UNK        -0.4718 
     45 CA         27.3271    2.8057   -8.3874 C.3       7 UNK         0.0273 
     46 CB         25.8624    3.2668   -8.3203 C.3       7 UNK        -0.1935 
     47 C          27.6376    2.1684   -9.7514 C.2       7 UNK         0.5018 
     48 O          28.3112    2.8023  -10.5638 O.2       7 UNK        -0.5186 
     49 N          27.1655    0.9319   -9.9759 N.am      8 UNK        -0.4240 
     50 CA         27.3709    0.1807  -11.2199 C.3       8 UNK         0.0235 
     51 CB         26.5233   -1.1013  -11.2056 C.3       8 UNK        -0.2000 
     52 C          28.8452   -0.1544  -11.4960 C.2       8 UNK         0.4941 
     53 O          29.2877   -0.0338  -12.6391 O.2       8 UNK        -0.5273 
     54 N          29.5810   -0.5510  -10.4495 N.am      9 UNK        -0.4262 
     55 CA         31.0128   -0.8503  -10.5113 C.3       9 UNK         0.0264 
     56 CB         31.3930   -1.7087   -9.2931 C.3       9 UNK        -0.1955 
     57 C          31.9032    0.4043  -10.5716 C.2       9 UNK         0.5031 
     58 O          33.0821    0.2710  -10.9036 O.2       9 UNK        -0.5390 
     59 N          31.3484    1.5761  -10.2183 N.am      10 UNK        -0.4204 
     60 CA         32.0374    2.8529   -9.9816 C.3       10 UNK         0.0237 
     61 CB         32.6130    3.4302  -11.2922 C.3       10 UNK        -0.1985 
     62 C          33.0829    2.7188   -8.8559 C.2       10 UNK         0.4970 
     63 O          34.2337    3.1321   -9.0135 O.2       10 UNK        -0.4914 
     64 N          32.6564    2.0814   -7.7604 N.am      11 UNK        -0.4285 
     65 CA         33.4792    1.7059   -6.6078 C.3       11 UNK         0.1007 
     66 C          33.9210    2.9212   -5.7464 C.2       11 UNK         0.5703 
     67 N          35.0100    2.7864   -5.0020 N.am      11 UNK        -0.7361 
     68 O          33.2755    3.9681   -5.7197 O.2       11 UNK        -0.4986 
     69 C69        32.7602    0.6156   -5.7657 C.3       12 UNK        -0.0947 
     70 S70        33.9146   -0.6313   -5.1101 S.3       12 UNK        -0.2240 
     71 C71        33.1631   -2.1881   -5.7114 C.3       12 UNK         0.0194 
     72 H72        25.8674   -6.0926    2.2337 H         1 UNK         0.0906 
     73 H73        26.3715   -4.5087    2.8006 H         1 UNK         0.0906 
     74 H74        25.2117   -4.6539    1.4660 H         1 UNK         0.0906 
     75 H75        28.5547   -4.0094   -0.1907 H         1 UNK         0.3140 
     76 H76        27.1570   -2.5328    1.8513 H         1 UNK         0.1085 
     77 H77        28.1728   -0.5708    0.8488 H         1 UNK         0.0836 
     78 H78        29.3741   -1.8087    1.0231 H         1 UNK         0.0836 
     79 H79        31.1975   -1.8895   -1.0610 H         1 UNK         0.0731 
     80 H80        30.2226   -3.3261   -0.8834 H         1 UNK         0.0731 
     81 H81        32.3141   -1.5727   -3.1275 H         1 UNK         0.1312 
     82 H82        31.2827   -3.9424   -6.5613 H         1 UNK         0.1406 
     83 H83        28.9062   -4.1488   -3.0011 H         1 UNK         0.1631 
     84 H84        28.4854   -5.7072   -4.7336 H         1 UNK         0.0717 
     85 H85        29.8018   -6.0473   -5.8215 H         1 UNK         0.0717 
     86 H86        25.9677   -4.2345   -5.9704 H         1 UNK         0.0934 
     87 H87        27.1951   -3.3591   -5.0943 H         1 UNK         0.0934 
     88 H88        26.4047   -2.7239   -7.9848 H         1 UNK         0.0739 
     89 H89        25.0649   -1.8229   -5.5800 H         1 UNK         0.3093 
     90 H90        23.3780    0.8905   -7.1800 H         1 UNK         0.0818 
     91 H91        21.3414   -0.3495   -6.4973 H         1 UNK         0.0819 
     92 H92        22.0510   -1.0961   -7.9181 H         1 UNK         0.0819 
     93 H93        22.2651   -1.8446   -6.3419 H         1 UNK         0.0819 
     94 H94        23.0893   -0.2666   -4.5889 H         1 UNK         0.3041 
     95 H95        25.8201    1.3114   -2.9965 H         1 UNK         0.0784 
     96 H96        24.1416    3.1682   -3.0913 H         1 UNK         0.0793 
     97 H97        22.8453    2.0244   -2.7702 H         1 UNK         0.0793 
     98 H98        24.0858    2.3269   -1.5522 H         1 UNK         0.0793 
     99 H99        23.7889   -0.1321   -1.7858 H         1 UNK         0.3024 
    100 H100       23.7301   -2.2855   -1.3595 H         1 UNK         0.1171 
    101 H101       23.4871   -3.5344   -3.5210 H         1 UNK         0.0786 
    102 H102       23.9392   -4.6088   -2.2078 H         1 UNK         0.0786 
    103 H103       25.1445   -4.1075   -3.3908 H         1 UNK         0.0786 
    104 H104       26.3516   -3.6036   -1.3384 H         1 UNK         0.2977 
    105 H105       27.2565   -0.7239   -5.1296 H         1 UNK         0.3127 
    106 H106       29.8757   -0.0764   -5.8785 H         1 UNK         0.0770 
    107 H107       27.8908    1.6211   -4.2789 H         1 UNK         0.0814 
    108 H108       29.6324    1.8546   -4.3215 H         1 UNK         0.0814 
    109 H109       28.9680    0.3864   -3.6269 H         1 UNK         0.0814 
    110 H110       26.8256    1.6330   -6.6900 H         1 UNK         0.2983 
    111 H111       27.9648    3.6863   -8.2832 H         1 UNK         0.0947 
    112 H112       25.6256    3.9409   -9.1445 H         1 UNK         0.0806 
    113 H113       25.6593    3.8036   -7.3934 H         1 UNK         0.0806 
    114 H114       25.1706    2.4254   -8.3751 H         1 UNK         0.0806 
    115 H115       26.5956    0.4822   -9.2641 H         1 UNK         0.3000 
    116 H116       27.0198    0.8079  -12.0421 H         1 UNK         0.0850 
    117 H117       26.6631   -1.6748  -12.1229 H         1 UNK         0.0810 
    118 H118       25.4606   -0.8722  -11.1265 H         1 UNK         0.0810 
    119 H119       26.7888   -1.7498  -10.3696 H         1 UNK         0.0810 
    120 H120       29.1256   -0.6885   -9.5465 H         1 UNK         0.3040 
    121 H121       31.2065   -1.4339  -11.4137 H         1 UNK         0.0766 
    122 H122       32.4481   -1.9840   -9.3194 H         1 UNK         0.0812 
    123 H123       30.8160   -2.6332   -9.2621 H         1 UNK         0.0812 
    124 H124       31.2153   -1.1754   -8.3585 H         1 UNK         0.0812 
    125 H125       30.3718    1.5626   -9.9522 H         1 UNK         0.3205 
    126 H126       31.2785    3.5475   -9.6176 H         1 UNK         0.0754 
    127 H127       33.0252    4.4268  -11.1299 H         1 UNK         0.0769 
    128 H128       31.8411    3.5187  -12.0566 H         1 UNK         0.0769 
    129 H129       33.4142    2.8096  -11.6945 H         1 UNK         0.0769 
    130 H130       31.6634    1.8658   -7.6904 H         1 UNK         0.2981 
    131 H131       34.3871    1.2728   -7.0333 H         1 UNK         0.0541 
    132 H132       35.3107    3.5564   -4.4254 H         1 UNK         0.3459 
    133 H133       35.5247    1.9194   -4.9931 H         1 UNK         0.3459 
    134 H134       32.0387    0.0865   -6.3871 H         1 UNK         0.0612 
    135 H135       32.1816    1.0441   -4.9450 H         1 UNK         0.0612 
    136 H136       32.9337   -2.0824   -6.7720 H         1 UNK         0.0624 
    137 H137       33.9202   -2.9700   -5.6422 H         1 UNK         0.0624 
@<TRIPOS>BOND
     1    1    2 1    
     2    1   72 1    
     3    1   73 1    
     4    1   74 1    
     5    2    3 2    
     6    2    4 am   BACKBONE|DICT|INTERRES
     7    4    5 1    
     8    4   75 1    
     9    5    6 1    
    10    5   35 1    
    11    5   76 1    
    12    6    7 1    
    13    6   77 1    
    14    6   78 1    
    15    7    8 1    
    16    8    9 1    
    17    8   79 1    
    18    8   80 1    
    19    9   10 ar   
    20    9   14 ar   
    21   10   11 ar   
    22   10   81 1    
    23   11   12 ar   
    24   11   71 1    
    25   12   13 ar   
    26   12   82 1    
    27   13   14 ar   
    28   13   15 1    
    29   14   83 1    
    30   15   16 1    
    31   15   84 1    
    32   15   85 1    
    33   16   17 1    
    34   17   18 1    
    35   17   86 1    
    36   17   87 1    
    37   18   19 1    
    38   18   37 1    
    39   18   88 1    
    40   19   20 am   BACKBONE|DICT|INTERRES
    41   19   89 1    
    42   20   21 2    
    43   20   22 1    
    44   22   23 1    
    45   22   24 1    
    46   22   90 1    
    47   23   91 1    
    48   23   92 1    
    49   23   93 1    
    50   24   25 am   BACKBONE|DICT|INTERRES
    51   24   94 1    
    52   25   26 2    
    53   25   27 1    
    54   27   28 1    
    55   27   29 1    
    56   27   95 1    
    57   28   96 1    
    58   28   97 1    
    59   28   98 1    
    60   29   30 am   BACKBONE|DICT|INTERRES
    61   29   99 1    
    62   30   31 2    
    63   30   32 1    
    64   32   33 1    
    65   32   34 1    
    66   32  100 1    
    67   33  101 1    
    68   33  102 1    
    69   33  103 1    
    70   34   35 am   BACKBONE|DICT|INTERRES
    71   34  104 1    
    72   35   36 2    
    73   37   38 2    
    74   37   39 am   BACKBONE|DICT|INTERRES
    75   39   40 1    
    76   39  105 1    
    77   40   41 1    
    78   40   42 1    
    79   40  106 1    
    80   41  107 1    
    81   41  108 1    
    82   41  109 1    
    83   42   43 2    
    84   42   44 am   BACKBONE|DICT|INTERRES
    85   44   45 1    
    86   44  110 1    
    87   45   46 1    
    88   45   47 1    
    89   45  111 1    
    90   46  112 1    
    91   46  113 1    
    92   46  114 1    
    93   47   48 2    
    94   47   49 am   BACKBONE|DICT|INTERRES
    95   49   50 1    
    96   49  115 1    
    97   50   51 1    
    98   50   52 1    
    99   50  116 1    
   100   51  117 1    
   101   51  118 1    
   102   51  119 1    
   103   52   53 2    
   104   52   54 am   BACKBONE|DICT|INTERRES
   105   54   55 1    
   106   54  120 1    
   107   55   56 1    
   108   55   57 1    
   109   55  121 1    
   110   56  122 1    
   111   56  123 1    
   112   56  124 1    
   113   57   58 2    
   114   57   59 am   BACKBONE|DICT|INTERRES
   115   59   60 1    
   116   59  125 1    
   117   60   61 1    
   118   60   62 1    
   119   60  126 1    
   120   61  127 1    
   121   61  128 1    
   122   61  129 1    
   123   62   63 2    
   124   62   64 am   BACKBONE|DICT|INTERRES
   125   64   65 1    
   126   64  130 1    
   127   65   66 1    
   128   65   69 1    
   129   65  131 1    
   130   66   67 am   BACKBONE|DICT|INTERRES
   131   66   68 2    
   132   67  132 1    
   133   67  133 1    
   134   69   70 1    
   135   69  134 1    
   136   69  135 1    
   137   70   71 1    
   138   71  136 1    
   139   71  137 1    
@<TRIPOS>SUBSTRUCTURE
     1 UNK         1 GROUP             0       ****    0 ROOT    
