@<TRIPOS>MOLECULE
3R137
137   139    1
SMALL
USER_CHARGES


@<TRIPOS>ATOM
      1 CA         22.5144   -5.0600   -3.1366 C.3       0 UNK        -0.2020 
      2 C          23.7289   -4.4450   -2.4575 C.2       0 UNK         0.4855 
      3 O          23.5766   -3.4995   -1.6842 O.2       0 UNK        -0.5197 
      4 N          24.9229   -4.9820   -2.7501 N.am      1 UNK        -0.4892 
      5 CA         26.2444   -4.6093   -2.2224 C.3       1 UNK         0.0835 
      6 C6         27.3312   -5.5063   -2.8788 C.3       12 UNK        -0.0855 
      7 S7         29.0459   -5.1682   -2.3427 S.3       12 UNK        -0.2931 
      8 C8         29.7531   -4.5032   -3.8868 C.3       12 UNK         0.0378 
      9 C9         30.9239   -3.5776   -3.6073 C.ar      12 UNK        -0.0802 
     10 C10        32.2369   -3.9937   -3.8423 C.ar      12 UNK        -0.0944 
     11 C11        33.3078   -3.1299   -3.5935 C.ar      12 UNK        -0.0787 
     12 C12        33.0548   -1.8405   -3.1117 C.ar      12 UNK        -0.0862 
     13 C13        31.7444   -1.4159   -2.8638 C.ar      12 UNK        -0.0733 
     14 C14        30.6843   -2.2920   -3.1159 C.ar      12 UNK        -0.0832 
     15 C15        31.4852   -0.0345   -2.2734 C.3       12 UNK         0.0240 
     16 S16        31.0272    1.2013   -3.5331 S.3       12 UNK        -0.2522 
     17 C17        29.2195    0.9839   -3.6447 C.3       12 UNK        -0.0967 
     18 CA         28.7145    0.9468   -5.1130 C.3       5 UNK         0.0660 
     19 N          27.7098   -0.0959   -5.3202 N.am      5 UNK        -0.4015 
     20 C          27.5045   -0.7305   -6.4809 C.2       4 UNK         0.4946 
     21 O          28.2821   -0.6604   -7.4311 O.2       4 UNK        -0.5353 
     22 CA         26.2273   -1.5801   -6.6242 C.3       4 UNK         0.0277 
     23 CB         26.5720   -3.0709   -6.7832 C.3       4 UNK        -0.1981 
     24 N          25.3011   -1.4066   -5.5021 N.am      4 UNK        -0.4209 
     25 C          24.4303   -0.3932   -5.3762 C.2       3 UNK         0.4942 
     26 O          24.2719    0.4857   -6.2222 O.2       3 UNK        -0.5208 
     27 CA         23.6405   -0.3104   -4.0556 C.3       3 UNK         0.0250 
     28 CB         22.3469   -1.1322   -4.1537 C.3       3 UNK        -0.1990 
     29 N          24.4145   -0.7450   -2.8873 N.am      3 UNK        -0.4232 
     30 C          25.5437   -0.1528   -2.4692 C.2       2 UNK         0.4993 
     31 O          26.0180    0.8528   -2.9984 O.2       2 UNK        -0.5286 
     32 CA         26.3264   -0.8406   -1.3356 C.3       2 UNK         0.0209 
     33 CB         25.8702   -0.3064    0.0304 C.3       2 UNK        -0.1931 
     34 N          26.2309   -2.3056   -1.3461 N.am      2 UNK        -0.4546 
     35 C          26.5222   -3.0978   -2.3891 C.2       1 UNK         0.5154 
     36 O          26.9333   -2.6688   -3.4672 O.2       1 UNK        -0.5181 
     37 C          28.1309    2.3071   -5.5495 C.2       5 UNK         0.5014 
     38 O          28.8112    3.0723   -6.2328 O.2       5 UNK        -0.5248 
     39 N          26.8811    2.5807   -5.1410 N.am      6 UNK        -0.4434 
     40 CA         26.1411    3.8106   -5.4313 C.3       6 UNK         0.0363 
     41 CB         24.8605    3.8466   -4.5810 C.3       6 UNK        -0.1936 
     42 C          25.8118    3.9946   -6.9231 C.2       6 UNK         0.5081 
     43 O          26.0659    5.0703   -7.4665 O.2       6 UNK        -0.5248 
     44 N          25.2578    2.9536   -7.5547 N.am      7 UNK        -0.4718 
     45 CA         24.9779    2.8908   -8.9906 C.3       7 UNK         0.0273 
     46 CB         23.5063    2.4965   -9.1931 C.3       7 UNK        -0.1935 
     47 C          25.9014    1.8407   -9.6161 C.2       7 UNK         0.5018 
     48 O          26.2556    0.8800   -8.9385 O.2       7 UNK        -0.5186 
     49 N          26.2959    2.0320  -10.8823 N.am      8 UNK        -0.4240 
     50 CA         27.2252    1.2005  -11.6747 C.3       8 UNK         0.0235 
     51 CB         26.7254   -0.2527  -11.8104 C.3       8 UNK        -0.2000 
     52 C          28.6986    1.2395  -11.2108 C.2       8 UNK         0.4941 
     53 O          29.5837    1.1553  -12.0627 O.2       8 UNK        -0.5273 
     54 N          28.9322    1.4130   -9.9032 N.am      9 UNK        -0.4262 
     55 CA         30.2124    1.6379   -9.2274 C.3       9 UNK         0.0264 
     56 CB         30.8785    2.9437   -9.7122 C.3       9 UNK        -0.1955 
     57 C          31.1518    0.4227   -9.2836 C.2       9 UNK         0.5031 
     58 O          32.2333    0.4928   -9.8755 O.2       9 UNK        -0.5390 
     59 N          30.7370   -0.6643   -8.6189 N.am      10 UNK        -0.4204 
     60 CA         31.5708   -1.8250   -8.2968 C.3       10 UNK         0.0237 
     61 CB         30.7433   -2.8482   -7.4998 C.3       10 UNK        -0.1985 
     62 C          32.8145   -1.4026   -7.4952 C.2       10 UNK         0.4970 
     63 O          32.6905   -0.6189   -6.5522 O.2       10 UNK        -0.4914 
     64 N          33.9804   -1.9030   -7.9190 N.am      11 UNK        -0.4285 
     65 CA         35.3137   -1.5409   -7.4056 C.3       11 UNK         0.1007 
     66 C          35.7614   -0.0796   -7.7252 C.2       11 UNK         0.5703 
     67 N          35.0574    0.6758   -8.5621 N.am      11 UNK        -0.7361 
     68 O          36.7956    0.3701   -7.2366 O.2       11 UNK        -0.4986 
     69 C69        35.5250   -1.9110   -5.9080 C.3       12 UNK        -0.0947 
     70 S70        35.2023   -3.6724   -5.5609 S.3       12 UNK        -0.2240 
     71 C71        34.7370   -3.6124   -3.8029 C.3       12 UNK         0.0194 
     72 H72        21.9878   -5.7105   -2.4391 H         1 UNK         0.0906 
     73 H73        21.8225   -4.2833   -3.4595 H         1 UNK         0.0906 
     74 H74        22.7917   -5.6483   -4.0111 H         1 UNK         0.0906 
     75 H75        24.9406   -5.7473   -3.4093 H         1 UNK         0.3140 
     76 H76        26.2396   -4.8279   -1.1526 H         1 UNK         0.1085 
     77 H77        27.2699   -5.4348   -3.9665 H         1 UNK         0.0836 
     78 H78        27.1243   -6.5522   -2.6461 H         1 UNK         0.0836 
     79 H79        29.0003   -3.9437   -4.4423 H         1 UNK         0.0731 
     80 H80        30.0541   -5.3310   -4.5306 H         1 UNK         0.0731 
     81 H81        32.4290   -4.9909   -4.2140 H         1 UNK         0.1312 
     82 H82        33.8808   -1.1719   -2.9114 H         1 UNK         0.1406 
     83 H83        29.6657   -1.9920   -2.9182 H         1 UNK         0.1631 
     84 H84        32.3813    0.3196   -1.7617 H         1 UNK         0.0717 
     85 H85        30.7115   -0.0912   -1.5061 H         1 UNK         0.0717 
     86 H86        28.9522    0.0605   -3.1365 H         1 UNK         0.0934 
     87 H87        28.7378    1.7684   -3.0566 H         1 UNK         0.0934 
     88 H88        29.5626    0.7293   -5.7670 H         1 UNK         0.0739 
     89 H89        27.0333   -0.2209   -4.5796 H         1 UNK         0.3093 
     90 H90        25.7262   -1.2577   -7.5388 H         1 UNK         0.0818 
     91 H91        27.1210   -3.4574   -5.9256 H         1 UNK         0.0819 
     92 H92        25.6739   -3.6754   -6.9090 H         1 UNK         0.0819 
     93 H93        27.1957   -3.2310   -7.6637 H         1 UNK         0.0819 
     94 H94        25.4452   -2.0330   -4.7179 H         1 UNK         0.3041 
     95 H95        23.3692    0.7356   -3.8977 H         1 UNK         0.0784 
     96 H96        21.7141   -0.7645   -4.9627 H         1 UNK         0.0793 
     97 H97        22.5540   -2.1827   -4.3562 H         1 UNK         0.0793 
     98 H98        21.7646   -1.0736   -3.2338 H         1 UNK         0.0793 
     99 H99        24.1033   -1.5844   -2.4080 H         1 UNK         0.3024 
    100 H100       27.3787   -0.5839   -1.4669 H         1 UNK         0.1171 
    101 H101       26.4856   -0.7031    0.8381 H         1 UNK         0.0786 
    102 H102       25.9489    0.7812    0.0705 H         1 UNK         0.0786 
    103 H103       24.8316   -0.5666    0.2393 H         1 UNK         0.0786 
    104 H104       25.8297   -2.7328   -0.5229 H         1 UNK         0.2977 
    105 H105       26.4262    1.9214   -4.5146 H         1 UNK         0.3127 
    106 H106       26.7707    4.6497   -5.1275 H         1 UNK         0.0770 
    107 H107       24.1956    3.0148   -4.8164 H         1 UNK         0.0814 
    108 H108       24.3036    4.7686   -4.7532 H         1 UNK         0.0814 
    109 H109       25.0895    3.7994   -3.5162 H         1 UNK         0.0814 
    110 H110       25.1102    2.0828   -7.0491 H         1 UNK         0.2983 
    111 H111       25.1595    3.8559   -9.4685 H         1 UNK         0.0947 
    112 H112       23.2578    2.4370  -10.2535 H         1 UNK         0.0806 
    113 H113       22.8357    3.2280   -8.7421 H         1 UNK         0.0806 
    114 H114       23.2863    1.5240   -8.7497 H         1 UNK         0.0806 
    115 H115       25.9672    2.8636  -11.3542 H         1 UNK         0.3000 
    116 H116       27.2135    1.6371  -12.6748 H         1 UNK         0.0850 
    117 H117       27.3424   -0.8085  -12.5175 H         1 UNK         0.0810 
    118 H118       25.6996   -0.2881  -12.1768 H         1 UNK         0.0810 
    119 H119       26.7635   -0.7904  -10.8624 H         1 UNK         0.0810 
    120 H120       28.1231    1.3311   -9.2922 H         1 UNK         0.3040 
    121 H121       29.9716    1.7774   -8.1738 H         1 UNK         0.0766 
    122 H122       30.2119    3.7970   -9.5882 H         1 UNK         0.0812 
    123 H123       31.1683    2.8909  -10.7619 H         1 UNK         0.0812 
    124 H124       31.7820    3.1524   -9.1380 H         1 UNK         0.0812 
    125 H125       29.8166   -0.6357   -8.1717 H         1 UNK         0.3205 
    126 H126       31.8813   -2.2802   -9.2392 H         1 UNK         0.0754 
    127 H127       31.3346   -3.7350   -7.2677 H         1 UNK         0.0769 
    128 H128       29.8672   -3.1753   -8.0600 H         1 UNK         0.0769 
    129 H129       30.3979   -2.4317   -6.5519 H         1 UNK         0.0769 
    130 H130       33.9814   -2.5279   -8.7117 H         1 UNK         0.2981 
    131 H131       36.0055   -2.1574   -7.9803 H         1 UNK         0.0541 
    132 H132       35.3792    1.6088   -8.7630 H         1 UNK         0.3459 
    133 H133       34.1902    0.3479   -8.9693 H         1 UNK         0.3459 
    134 H134       36.5531   -1.7080   -5.6036 H         1 UNK         0.0612 
    135 H135       34.8942   -1.2905   -5.2712 H         1 UNK         0.0612 
    136 H136       35.4450   -2.9831   -3.2614 H         1 UNK         0.0624 
    137 H137       34.8398   -4.6140   -3.3829 H         1 UNK         0.0624 
@<TRIPOS>BOND
     1    1    2 1    
     2    1   72 1    
     3    1   73 1    
     4    1   74 1    
     5    2    3 2    
     6    2    4 am   BACKBONE|DICT|INTERRES
     7    4    5 1    
     8    4   75 1    
     9    5    6 1    
    10    5   35 1    
    11    5   76 1    
    12    6    7 1    
    13    6   77 1    
    14    6   78 1    
    15    7    8 1    
    16    8    9 1    
    17    8   79 1    
    18    8   80 1    
    19    9   10 ar   
    20    9   14 ar   
    21   10   11 ar   
    22   10   81 1    
    23   11   12 ar   
    24   11   71 1    
    25   12   13 ar   
    26   12   82 1    
    27   13   14 ar   
    28   13   15 1    
    29   14   83 1    
    30   15   16 1    
    31   15   84 1    
    32   15   85 1    
    33   16   17 1    
    34   17   18 1    
    35   17   86 1    
    36   17   87 1    
    37   18   19 1    
    38   18   37 1    
    39   18   88 1    
    40   19   20 am   BACKBONE|DICT|INTERRES
    41   19   89 1    
    42   20   21 2    
    43   20   22 1    
    44   22   23 1    
    45   22   24 1    
    46   22   90 1    
    47   23   91 1    
    48   23   92 1    
    49   23   93 1    
    50   24   25 am   BACKBONE|DICT|INTERRES
    51   24   94 1    
    52   25   26 2    
    53   25   27 1    
    54   27   28 1    
    55   27   29 1    
    56   27   95 1    
    57   28   96 1    
    58   28   97 1    
    59   28   98 1    
    60   29   30 am   BACKBONE|DICT|INTERRES
    61   29   99 1    
    62   30   31 2    
    63   30   32 1    
    64   32   33 1    
    65   32   34 1    
    66   32  100 1    
    67   33  101 1    
    68   33  102 1    
    69   33  103 1    
    70   34   35 am   BACKBONE|DICT|INTERRES
    71   34  104 1    
    72   35   36 2    
    73   37   38 2    
    74   37   39 am   BACKBONE|DICT|INTERRES
    75   39   40 1    
    76   39  105 1    
    77   40   41 1    
    78   40   42 1    
    79   40  106 1    
    80   41  107 1    
    81   41  108 1    
    82   41  109 1    
    83   42   43 2    
    84   42   44 am   BACKBONE|DICT|INTERRES
    85   44   45 1    
    86   44  110 1    
    87   45   46 1    
    88   45   47 1    
    89   45  111 1    
    90   46  112 1    
    91   46  113 1    
    92   46  114 1    
    93   47   48 2    
    94   47   49 am   BACKBONE|DICT|INTERRES
    95   49   50 1    
    96   49  115 1    
    97   50   51 1    
    98   50   52 1    
    99   50  116 1    
   100   51  117 1    
   101   51  118 1    
   102   51  119 1    
   103   52   53 2    
   104   52   54 am   BACKBONE|DICT|INTERRES
   105   54   55 1    
   106   54  120 1    
   107   55   56 1    
   108   55   57 1    
   109   55  121 1    
   110   56  122 1    
   111   56  123 1    
   112   56  124 1    
   113   57   58 2    
   114   57   59 am   BACKBONE|DICT|INTERRES
   115   59   60 1    
   116   59  125 1    
   117   60   61 1    
   118   60   62 1    
   119   60  126 1    
   120   61  127 1    
   121   61  128 1    
   122   61  129 1    
   123   62   63 2    
   124   62   64 am   BACKBONE|DICT|INTERRES
   125   64   65 1    
   126   64  130 1    
   127   65   66 1    
   128   65   69 1    
   129   65  131 1    
   130   66   67 am   BACKBONE|DICT|INTERRES
   131   66   68 2    
   132   67  132 1    
   133   67  133 1    
   134   69   70 1    
   135   69  134 1    
   136   69  135 1    
   137   70   71 1    
   138   71  136 1    
   139   71  137 1    
@<TRIPOS>SUBSTRUCTURE
     1 UNK         1 GROUP             0       ****    0 ROOT    
