@<TRIPOS>MOLECULE
3R137
137   139    1
SMALL
USER_CHARGES


@<TRIPOS>ATOM
      1 CA         30.1284    1.4714   -1.9611 C.3       0 UNK        -0.2020 
      2 C          29.5752    0.0734   -2.1910 C.2       0 UNK         0.4855 
      3 O          29.3175   -0.2953   -3.3349 O.2       0 UNK        -0.5197 
      4 N          29.4036   -0.7069   -1.1160 N.am      1 UNK        -0.4892 
      5 CA         28.8045   -2.0433   -1.1553 C.3       1 UNK         0.0835 
      6 C6         29.2862   -2.9111    0.0369 C.3       12 UNK        -0.0855 
      7 S7         29.0611   -4.7019   -0.2502 S.3       12 UNK        -0.2931 
      8 C8         30.6926   -5.1940   -0.9019 C.3       12 UNK         0.0378 
      9 C9         30.9756   -4.5225   -2.2365 C.ar      12 UNK        -0.0802 
     10 C10        31.8213   -3.4106   -2.3003 C.ar      12 UNK        -0.0944 
     11 C11        32.0067   -2.7302   -3.5063 C.ar      12 UNK        -0.0787 
     12 C12        31.3731   -3.1939   -4.6614 C.ar      12 UNK        -0.0862 
     13 C13        30.5161   -4.2988   -4.6085 C.ar      12 UNK        -0.0733 
     14 C14        30.3341   -4.9693   -3.3958 C.ar      12 UNK        -0.0832 
     15 C15        29.7450   -4.7360   -5.8478 C.3       12 UNK         0.0240 
     16 S16        27.9958   -4.2082   -5.7924 S.3       12 UNK        -0.2522 
     17 C17        28.1322   -2.3974   -5.6197 C.3       12 UNK        -0.0967 
     18 CA         27.4168   -1.6046   -6.7374 C.3       5 UNK         0.0660 
     19 N          25.9641   -1.7992   -6.7339 N.am      5 UNK        -0.4015 
     20 C          25.1225   -1.3279   -7.6661 C.2       4 UNK         0.4946 
     21 O          25.4809   -0.7049   -8.6654 O.2       4 UNK        -0.5353 
     22 CA         23.6212   -1.5558   -7.4227 C.3       4 UNK         0.0277 
     23 CB         23.2151   -2.9824   -7.8262 C.3       4 UNK        -0.1981 
     24 N          23.2293   -1.3034   -6.0337 N.am      4 UNK        -0.4209 
     25 C          23.2711   -0.1003   -5.4418 C.2       3 UNK         0.4942 
     26 O          23.5938    0.9376   -6.0180 O.2       3 UNK        -0.5208 
     27 CA         22.9533   -0.0569   -3.9359 C.3       3 UNK         0.0250 
     28 CB         21.4361    0.0256   -3.7042 C.3       3 UNK        -0.1990 
     29 N          23.5106   -1.1863   -3.1792 N.am      3 UNK        -0.4232 
     30 C          24.8118   -1.5064   -3.1448 C.2       2 UNK         0.4993 
     31 O          25.6748   -0.8992   -3.7814 O.2       2 UNK        -0.5286 
     32 CA         25.2001   -2.7441   -2.3168 C.3       2 UNK         0.0209 
     33 CB         24.8267   -4.0315   -3.0717 C.3       2 UNK        -0.1931 
     34 N          26.6356   -2.7771   -2.0274 N.am      2 UNK        -0.4546 
     35 C          27.2691   -1.9275   -1.2088 C.2       1 UNK         0.5154 
     36 O          26.6928   -1.0962   -0.5005 O.2       1 UNK        -0.5181 
     37 C          27.7837   -0.1141   -6.6261 C.2       5 UNK         0.5014 
     38 O          28.6383    0.3530   -7.3811 O.2       5 UNK        -0.5248 
     39 N          27.1211    0.5970   -5.7037 N.am      6 UNK        -0.4434 
     40 CA         27.2884    2.0296   -5.4705 C.3       6 UNK         0.0363 
     41 CB         26.5223    2.4357   -4.2020 C.3       6 UNK        -0.1936 
     42 C          26.8531    2.8783   -6.6754 C.2       6 UNK         0.5081 
     43 O          27.5716    3.8069   -7.0443 O.2       6 UNK        -0.5248 
     44 N          25.7104    2.5308   -7.2866 N.am      7 UNK        -0.4718 
     45 CA         25.1857    3.1751   -8.4946 C.3       7 UNK         0.0273 
     46 CB         23.7571    2.6798   -8.7695 C.3       7 UNK        -0.1935 
     47 C          26.0791    2.9589   -9.7271 C.2       7 UNK         0.5018 
     48 O          26.2878    3.9004  -10.4931 O.2       7 UNK        -0.5186 
     49 N          26.6019    1.7353   -9.8884 N.am      8 UNK        -0.4240 
     50 CA         27.5343    1.3714  -10.9583 C.3       8 UNK         0.0235 
     51 CB         27.5763   -0.1607  -11.0836 C.3       8 UNK        -0.2000 
     52 C          28.9586    1.9187  -10.7523 C.2       8 UNK         0.4941 
     53 O          29.7105    1.9844  -11.7256 O.2       8 UNK        -0.5273 
     54 N          29.3111    2.2564   -9.5011 N.am      9 UNK        -0.4262 
     55 CA         30.6585    2.5632   -9.0026 C.3       9 UNK         0.0264 
     56 CB         31.2034    3.8705   -9.6155 C.3       9 UNK        -0.1955 
     57 C          31.5994    1.3561   -9.1881 C.2       9 UNK         0.5031 
     58 O          32.6978    1.4932   -9.7304 O.2       9 UNK        -0.5390 
     59 N          31.1119    0.1793   -8.7709 N.am      10 UNK        -0.4204 
     60 CA         31.7126   -1.1309   -9.0360 C.3       10 UNK         0.0237 
     61 CB         30.6805   -2.2226   -8.7178 C.3       10 UNK        -0.1985 
     62 C          33.0401   -1.4048   -8.3063 C.2       10 UNK         0.4970 
     63 O          33.7826   -2.2847   -8.7442 O.2       10 UNK        -0.4914 
     64 N          33.3259   -0.6668   -7.2286 N.am      11 UNK        -0.4285 
     65 CA         34.5955   -0.7084   -6.4942 C.3       11 UNK         0.1007 
     66 C          34.8861    0.6700   -5.8397 C.2       11 UNK         0.5703 
     67 N          36.1282    0.9233   -5.4507 N.am      11 UNK        -0.7361 
     68 O          33.9986    1.5077   -5.6803 O.2       11 UNK        -0.4986 
     69 C69        34.7107   -1.9702   -5.5700 C.3       12 UNK        -0.0947 
     70 S70        34.5942   -1.7413   -3.7593 S.3       12 UNK        -0.2240 
     71 C71        32.8168   -1.4434   -3.5377 C.3       12 UNK         0.0194 
     72 H72        29.4150    2.2172   -2.3114 H         1 UNK         0.0906 
     73 H73        31.0570    1.6011   -2.5170 H         1 UNK         0.0906 
     74 H74        30.3327    1.6631   -0.9077 H         1 UNK         0.0906 
     75 H75        29.5873   -0.3352   -0.1950 H         1 UNK         0.3140 
     76 H76        29.1324   -2.5158   -2.0832 H         1 UNK         0.1085 
     77 H77        28.7707   -2.6327    0.9584 H         1 UNK         0.0836 
     78 H78        30.3445   -2.7303    0.2308 H         1 UNK         0.0836 
     79 H79        31.4671   -4.9542   -0.1715 H         1 UNK         0.0731 
     80 H80        30.7145   -6.2776   -1.0269 H         1 UNK         0.0731 
     81 H81        32.2979   -3.0430   -1.4019 H         1 UNK         0.1312 
     82 H82        31.5091   -2.6600   -5.5910 H         1 UNK         0.1406 
     83 H83        29.6569   -5.8115   -3.3447 H         1 UNK         0.1631 
     84 H84        29.7808   -5.8230   -5.9314 H         1 UNK         0.0717 
     85 H85        30.2138   -4.3499   -6.7524 H         1 UNK         0.0717 
     86 H86        27.7474   -2.1231   -4.6378 H         1 UNK         0.0934 
     87 H87        29.1822   -2.1137   -5.5973 H         1 UNK         0.0934 
     88 H88        27.7878   -1.9580   -7.7014 H         1 UNK         0.0739 
     89 H89        25.5823   -2.2589   -5.9218 H         1 UNK         0.3093 
     90 H90        23.0749   -0.8541   -8.0569 H         1 UNK         0.0818 
     91 H91        23.4855   -3.1843   -8.8638 H         1 UNK         0.0819 
     92 H92        23.7058   -3.7364   -7.2095 H         1 UNK         0.0819 
     93 H93        22.1380   -3.1272   -7.7408 H         1 UNK         0.0819 
     94 H94        22.9438   -2.0993   -5.4826 H         1 UNK         0.3041 
     95 H95        23.4070    0.8531   -3.5375 H         1 UNK         0.0784 
     96 H96        21.0048    0.8691   -4.2455 H         1 UNK         0.0793 
     97 H97        20.9237   -0.8756   -4.0432 H         1 UNK         0.0793 
     98 H98        21.2028    0.1685   -2.6489 H         1 UNK         0.0793 
     99 H99        22.8563   -1.7371   -2.6416 H         1 UNK         0.3024 
    100 H100       24.6584   -2.7098   -1.3688 H         1 UNK         0.1171 
    101 H101       23.7554   -4.0790   -3.2711 H         1 UNK         0.0786 
    102 H102       25.3411   -4.1020   -4.0311 H         1 UNK         0.0786 
    103 H103       25.0824   -4.9183   -2.4912 H         1 UNK         0.0786 
    104 H104       27.1864   -3.4291   -2.5665 H         1 UNK         0.2977 
    105 H105       26.4918    0.1010   -5.0731 H         1 UNK         0.3127 
    106 H106       28.3517    2.2108   -5.2990 H         1 UNK         0.0770 
    107 H107       25.4504    2.2644   -4.3064 H         1 UNK         0.0814 
    108 H108       26.6664    3.4937   -3.9803 H         1 UNK         0.0814 
    109 H109       26.8666    1.8697   -3.3358 H         1 UNK         0.0814 
    110 H110       25.1446    1.7871   -6.8853 H         1 UNK         0.2983 
    111 H111       25.1427    4.2499   -8.3056 H         1 UNK         0.0947 
    112 H112       23.7269    1.6000   -8.9206 H         1 UNK         0.0806 
    113 H113       23.3448    3.1483   -9.6642 H         1 UNK         0.0806 
    114 H114       23.0895    2.9193   -7.9417 H         1 UNK         0.0806 
    115 H115       26.3244    0.9926   -9.2512 H         1 UNK         0.3000 
    116 H116       27.1581    1.7817  -11.8980 H         1 UNK         0.0850 
    117 H117       28.2494   -0.4727  -11.8834 H         1 UNK         0.0810 
    118 H118       26.5907   -0.5668  -11.3119 H         1 UNK         0.0810 
    119 H119       27.9240   -0.6280  -10.1614 H         1 UNK         0.0810 
    120 H120       28.6153    2.1154   -8.7784 H         1 UNK         0.3040 
    121 H121       30.5594    2.7175   -7.9269 H         1 UNK         0.0766 
    122 H122       31.3785    3.7778  -10.6876 H         1 UNK         0.0812 
    123 H123       32.1527    4.1475   -9.1558 H         1 UNK         0.0812 
    124 H124       30.5120    4.6984   -9.4583 H         1 UNK         0.0812 
    125 H125       30.2015    0.1841   -8.3105 H         1 UNK         0.3205 
    126 H126       31.9298   -1.1780  -10.1052 H         1 UNK         0.0754 
    127 H127       31.0921   -3.2186   -8.8878 H         1 UNK         0.0769 
    128 H128       29.7967   -2.1279   -9.3486 H         1 UNK         0.0769 
    129 H129       30.3581   -2.1697   -7.6796 H         1 UNK         0.0769 
    130 H130       32.7006    0.0773   -6.9502 H         1 UNK         0.2981 
    131 H131       35.3686   -0.8040   -7.2599 H         1 UNK         0.0541 
    132 H132       36.3346    1.8111   -5.0206 H         1 UNK         0.3459 
    133 H133       36.8582    0.2369   -5.5593 H         1 UNK         0.3459 
    134 H134       35.6881   -2.4229   -5.7416 H         1 UNK         0.0612 
    135 H135       34.0006   -2.7434   -5.8652 H         1 UNK         0.0612 
    136 H136       32.4500   -0.7786   -4.3211 H         1 UNK         0.0624 
    137 H137       32.6731   -0.9039   -2.6004 H         1 UNK         0.0624 
@<TRIPOS>BOND
     1    1    2 1    
     2    1   72 1    
     3    1   73 1    
     4    1   74 1    
     5    2    3 2    
     6    2    4 am   BACKBONE|DICT|INTERRES
     7    4    5 1    
     8    4   75 1    
     9    5    6 1    
    10    5   35 1    
    11    5   76 1    
    12    6    7 1    
    13    6   77 1    
    14    6   78 1    
    15    7    8 1    
    16    8    9 1    
    17    8   79 1    
    18    8   80 1    
    19    9   10 ar   
    20    9   14 ar   
    21   10   11 ar   
    22   10   81 1    
    23   11   12 ar   
    24   11   71 1    
    25   12   13 ar   
    26   12   82 1    
    27   13   14 ar   
    28   13   15 1    
    29   14   83 1    
    30   15   16 1    
    31   15   84 1    
    32   15   85 1    
    33   16   17 1    
    34   17   18 1    
    35   17   86 1    
    36   17   87 1    
    37   18   19 1    
    38   18   37 1    
    39   18   88 1    
    40   19   20 am   BACKBONE|DICT|INTERRES
    41   19   89 1    
    42   20   21 2    
    43   20   22 1    
    44   22   23 1    
    45   22   24 1    
    46   22   90 1    
    47   23   91 1    
    48   23   92 1    
    49   23   93 1    
    50   24   25 am   BACKBONE|DICT|INTERRES
    51   24   94 1    
    52   25   26 2    
    53   25   27 1    
    54   27   28 1    
    55   27   29 1    
    56   27   95 1    
    57   28   96 1    
    58   28   97 1    
    59   28   98 1    
    60   29   30 am   BACKBONE|DICT|INTERRES
    61   29   99 1    
    62   30   31 2    
    63   30   32 1    
    64   32   33 1    
    65   32   34 1    
    66   32  100 1    
    67   33  101 1    
    68   33  102 1    
    69   33  103 1    
    70   34   35 am   BACKBONE|DICT|INTERRES
    71   34  104 1    
    72   35   36 2    
    73   37   38 2    
    74   37   39 am   BACKBONE|DICT|INTERRES
    75   39   40 1    
    76   39  105 1    
    77   40   41 1    
    78   40   42 1    
    79   40  106 1    
    80   41  107 1    
    81   41  108 1    
    82   41  109 1    
    83   42   43 2    
    84   42   44 am   BACKBONE|DICT|INTERRES
    85   44   45 1    
    86   44  110 1    
    87   45   46 1    
    88   45   47 1    
    89   45  111 1    
    90   46  112 1    
    91   46  113 1    
    92   46  114 1    
    93   47   48 2    
    94   47   49 am   BACKBONE|DICT|INTERRES
    95   49   50 1    
    96   49  115 1    
    97   50   51 1    
    98   50   52 1    
    99   50  116 1    
   100   51  117 1    
   101   51  118 1    
   102   51  119 1    
   103   52   53 2    
   104   52   54 am   BACKBONE|DICT|INTERRES
   105   54   55 1    
   106   54  120 1    
   107   55   56 1    
   108   55   57 1    
   109   55  121 1    
   110   56  122 1    
   111   56  123 1    
   112   56  124 1    
   113   57   58 2    
   114   57   59 am   BACKBONE|DICT|INTERRES
   115   59   60 1    
   116   59  125 1    
   117   60   61 1    
   118   60   62 1    
   119   60  126 1    
   120   61  127 1    
   121   61  128 1    
   122   61  129 1    
   123   62   63 2    
   124   62   64 am   BACKBONE|DICT|INTERRES
   125   64   65 1    
   126   64  130 1    
   127   65   66 1    
   128   65   69 1    
   129   65  131 1    
   130   66   67 am   BACKBONE|DICT|INTERRES
   131   66   68 2    
   132   67  132 1    
   133   67  133 1    
   134   69   70 1    
   135   69  134 1    
   136   69  135 1    
   137   70   71 1    
   138   71  136 1    
   139   71  137 1    
@<TRIPOS>SUBSTRUCTURE
     1 UNK         1 GROUP             0       ****    0 ROOT    
