@<TRIPOS>MOLECULE
3R137
137   139    1
SMALL
USER_CHARGES


@<TRIPOS>ATOM
      1 CA         26.0305   -1.3763    4.6491 C.3       0 UNK        -0.2020 
      2 C          26.7989   -1.1569    3.3544 C.2       0 UNK         0.4855 
      3 O          27.6113   -0.2353    3.2726 O.2       0 UNK        -0.5197 
      4 N          26.5485   -1.9931    2.3430 N.am      1 UNK        -0.4892 
      5 CA         27.1512   -1.9301    1.0133 C.3       1 UNK         0.0835 
      6 C6         28.5731   -2.5507    0.9950 C.3       12 UNK        -0.0855 
      7 S7         29.5270   -2.0482   -0.4755 S.3       12 UNK        -0.2931 
      8 C8         30.1923   -3.6467   -1.0437 C.3       12 UNK         0.0378 
      9 C9         30.7061   -3.5511   -2.4731 C.ar      12 UNK        -0.0802 
     10 C10        31.7507   -2.6750   -2.7909 C.ar      12 UNK        -0.0944 
     11 C11        32.1781   -2.5307   -4.1136 C.ar      12 UNK        -0.0787 
     12 C12        31.5842   -3.3043   -5.1130 C.ar      12 UNK        -0.0862 
     13 C13        30.5345   -4.1767   -4.8120 C.ar      12 UNK        -0.0733 
     14 C14        30.1075   -4.3066   -3.4875 C.ar      12 UNK        -0.0832 
     15 C15        29.8092   -4.9057   -5.9374 C.3       12 UNK         0.0240 
     16 S16        28.1266   -4.2476   -6.2263 S.3       12 UNK        -0.2522 
     17 C17        28.3706   -2.4443   -6.0727 C.3       12 UNK        -0.0967 
     18 CA         27.5894   -1.6109   -7.1073 C.3       5 UNK         0.0660 
     19 N          26.1410   -1.7968   -7.0125 N.am      5 UNK        -0.4015 
     20 C          25.2539   -1.3170   -7.8955 C.2       4 UNK         0.4946 
     21 O          25.5609   -0.6890   -8.9090 O.2       4 UNK        -0.5353 
     22 CA         23.7692   -1.5341   -7.5628 C.3       4 UNK         0.0277 
     23 CB         23.3279   -2.9571   -7.9408 C.3       4 UNK        -0.1981 
     24 N          23.4677   -1.2779   -6.1516 N.am      4 UNK        -0.4209 
     25 C          23.5879   -0.0800   -5.5606 C.2       3 UNK         0.4942 
     26 O          23.9318    0.9436   -6.1493 O.2       3 UNK        -0.5208 
     27 CA         23.3177   -0.0178   -4.0494 C.3       3 UNK         0.0250 
     28 CB         21.8175    0.1757   -3.7770 C.3       3 UNK        -0.1990 
     29 N          23.8078   -1.1861   -3.3100 N.am      3 UNK        -0.4232 
     30 C          25.0931   -1.5578   -3.2325 C.2       2 UNK         0.4993 
     31 O          26.0121   -0.9937   -3.8324 O.2       2 UNK        -0.5286 
     32 CA         25.4094   -2.7484   -2.3233 C.3       2 UNK         0.0209 
     33 CB         26.1078   -3.8819   -3.0928 C.3       2 UNK        -0.1931 
     34 N          26.2817   -2.2730   -1.2549 N.am      2 UNK        -0.4546 
     35 C          26.1791   -2.6144    0.0336 C.2       1 UNK         0.5154 
     36 O          25.3540   -3.4276    0.4637 O.2       1 UNK        -0.5181 
     37 C          27.9809   -0.1312   -6.9578 C.2       5 UNK         0.5014 
     38 O          28.8397    0.3390   -7.7057 O.2       5 UNK        -0.5248 
     39 N          27.3497    0.5657   -6.0007 N.am      6 UNK        -0.4434 
     40 CA         27.5403    1.9947   -5.7512 C.3       6 UNK         0.0363 
     41 CB         26.8183    2.3955   -4.4552 C.3       6 UNK        -0.1936 
     42 C          27.0796    2.8659   -6.9311 C.2       6 UNK         0.5081 
     43 O          27.7978    3.7905   -7.3098 O.2       6 UNK        -0.5248 
     44 N          25.9167    2.5368   -7.5125 N.am      7 UNK        -0.4718 
     45 CA         25.3650    3.1903   -8.7028 C.3       7 UNK         0.0273 
     46 CB         23.9255    2.7061   -8.9387 C.3       7 UNK        -0.1935 
     47 C          26.2243    2.9697   -9.9587 C.2       7 UNK         0.5018 
     48 O          26.4223    3.9116  -10.7272 O.2       7 UNK        -0.5186 
     49 N          26.7339    1.7424  -10.1346 N.am      8 UNK        -0.4240 
     50 CA         27.6492    1.3757  -11.2187 C.3       8 UNK         0.0235 
     51 CB         27.7006   -0.1570  -11.3333 C.3       8 UNK        -0.2000 
     52 C          29.0732    1.9350  -11.0426 C.2       8 UNK         0.4941 
     53 O          29.7963    2.0312  -12.0349 O.2       8 UNK        -0.5273 
     54 N          29.4558    2.2501   -9.7944 N.am      9 UNK        -0.4262 
     55 CA         30.8083    2.5753   -9.3236 C.3       9 UNK         0.0264 
     56 CB         31.3035    3.9118   -9.9148 C.3       9 UNK        -0.1955 
     57 C          31.7745    1.3999   -9.5690 C.2       9 UNK         0.5031 
     58 O          32.8591    1.5883  -10.1233 O.2       9 UNK        -0.5390 
     59 N          31.3305    0.1951   -9.1818 N.am      10 UNK        -0.4204 
     60 CA         31.9209   -1.0965   -9.5528 C.3       10 UNK         0.0237 
     61 CB         31.0375   -2.2280   -9.0061 C.3       10 UNK        -0.1985 
     62 C          33.3938   -1.3085   -9.1534 C.2       10 UNK         0.4970 
     63 O          34.0990   -2.0254   -9.8650 O.2       10 UNK        -0.4914 
     64 N          33.8356   -0.6881   -8.0518 N.am      11 UNK        -0.4285 
     65 CA         35.2440   -0.6889   -7.6135 C.3       11 UNK         0.1007 
     66 C          36.1098    0.4269   -8.2720 C.2       11 UNK         0.5703 
     67 N          35.5715    1.2921   -9.1241 N.am      11 UNK        -0.7361 
     68 O          37.3095    0.5015   -8.0160 O.2       11 UNK        -0.4986 
     69 C69        35.3791   -0.6821   -6.0662 C.3       12 UNK        -0.0947 
     70 S70        34.6677   -2.1782   -5.3014 S.3       12 UNK        -0.2240 
     71 C71        33.2054   -1.4720   -4.4859 C.3       12 UNK         0.0194 
     72 H72        25.4435   -0.4910    4.8921 H         1 UNK         0.0906 
     73 H73        26.7231   -1.5618    5.4696 H         1 UNK         0.0906 
     74 H74        25.3509   -2.2256    4.5811 H         1 UNK         0.0906 
     75 H75        25.8376   -2.7121    2.4229 H         1 UNK         0.3140 
     76 H76        27.2144   -0.8768    0.7286 H         1 UNK         0.1085 
     77 H77        28.5243   -3.6380    1.0787 H         1 UNK         0.0836 
     78 H78        29.1404   -2.2139    1.8641 H         1 UNK         0.0836 
     79 H79        31.0016   -3.9602   -0.3829 H         1 UNK         0.0731 
     80 H80        29.4144   -4.4086   -0.9720 H         1 UNK         0.0731 
     81 H81        32.1941   -2.0702   -2.0115 H         1 UNK         0.1312 
     82 H82        31.9106   -3.1854   -6.1362 H         1 UNK         0.1406 
     83 H83        29.2814   -4.9662   -3.2584 H         1 UNK         0.1631 
     84 H84        29.7410   -5.9682   -5.7004 H         1 UNK         0.0717 
     85 H85        30.3751   -4.8353   -6.8677 H         1 UNK         0.0717 
     86 H86        28.1133   -2.1501   -5.0537 H         1 UNK         0.0934 
     87 H87        29.4292   -2.2190   -6.1842 H         1 UNK         0.0934 
     88 H88        27.8953   -1.9307   -8.1056 H         1 UNK         0.0739 
     89 H89        25.8057   -2.2800   -6.1930 H         1 UNK         0.3093 
     90 H90        23.1911   -0.8268   -8.1616 H         1 UNK         0.0818 
     91 H91        23.5323   -3.1605   -8.9930 H         1 UNK         0.0819 
     92 H92        23.8495   -3.7155   -7.3555 H         1 UNK         0.0819 
     93 H93        22.2569   -3.0935   -7.7894 H         1 UNK         0.0819 
     94 H94        23.1695   -2.0632   -5.5917 H         1 UNK         0.3041 
     95 H95        23.8461    0.8561   -3.6626 H         1 UNK         0.0784 
     96 H96        21.4358    1.0518   -4.3036 H         1 UNK         0.0793 
     97 H97        21.2306   -0.6830   -4.1056 H         1 UNK         0.0793 
     98 H98        21.6231    0.3298   -2.7154 H         1 UNK         0.0793 
     99 H99        23.1187   -1.7010   -2.7803 H         1 UNK         0.3024 
    100 H100       24.4751   -3.1344   -1.9088 H         1 UNK         0.1171 
    101 H101       25.5221   -4.1947   -3.9581 H         1 UNK         0.0786 
    102 H102       27.0898   -3.5751   -3.4511 H         1 UNK         0.0786 
    103 H103       26.2477   -4.7582   -2.4599 H         1 UNK         0.0786 
    104 H104       26.9796   -1.5960   -1.5372 H         1 UNK         0.2977 
    105 H105       26.7057    0.0762   -5.3852 H         1 UNK         0.3127 
    106 H106       28.6099    2.1647   -5.6107 H         1 UNK         0.0770 
    107 H107       26.9922    3.4467   -4.2222 H         1 UNK         0.0814 
    108 H108       25.7405    2.2527   -4.5319 H         1 UNK         0.0814 
    109 H109       27.1730    1.8106   -3.6062 H         1 UNK         0.0814 
    110 H110       25.3521    1.7994   -7.0960 H         1 UNK         0.2983 
    111 H111       25.3361    4.2648   -8.5089 H         1 UNK         0.0947 
    112 H112       23.8839    1.6281   -9.0997 H         1 UNK         0.0806 
    113 H113       23.4891    3.1862   -9.8155 H         1 UNK         0.0806 
    114 H114       23.2853    2.9403   -8.0880 H         1 UNK         0.0806 
    115 H115       26.4591    1.0004   -9.4962 H         1 UNK         0.3000 
    116 H116       27.2518    1.7767  -12.1536 H         1 UNK         0.0850 
    117 H117       28.3554   -0.4687  -12.1481 H         1 UNK         0.0810 
    118 H118       26.7130   -0.5730  -11.5335 H         1 UNK         0.0810 
    119 H119       28.0766   -0.6154  -10.4178 H         1 UNK         0.0810 
    120 H120       28.7833    2.0792   -9.0562 H         1 UNK         0.3040 
    121 H121       30.7353    2.6975   -8.2417 H         1 UNK         0.0766 
    122 H122       32.2592    4.2000   -9.4754 H         1 UNK         0.0812 
    123 H123       30.5973    4.7177   -9.7150 H         1 UNK         0.0812 
    124 H124       31.4490    3.8520  -10.9937 H         1 UNK         0.0812 
    125 H125       30.4320    0.1655   -8.7024 H         1 UNK         0.3205 
    126 H126       31.8884   -1.1489  -10.6431 H         1 UNK         0.0754 
    127 H127       31.4575   -3.2079   -9.2379 H         1 UNK         0.0769 
    128 H128       30.0381   -2.1948   -9.4401 H         1 UNK         0.0769 
    129 H129       30.9352   -2.1606   -7.9252 H         1 UNK         0.0769 
    130 H130       33.2020   -0.0954   -7.5383 H         1 UNK         0.2981 
    131 H131       35.7012   -1.6202   -7.9530 H         1 UNK         0.0541 
    132 H132       36.1612    1.9967   -9.5368 H         1 UNK         0.3459 
    133 H133       34.5905    1.2494   -9.3855 H         1 UNK         0.3459 
    134 H134       34.9236    0.2148   -5.6430 H         1 UNK         0.0612 
    135 H135       36.4298   -0.6522   -5.7722 H         1 UNK         0.0612 
    136 H136       32.7274   -0.7552   -5.1549 H         1 UNK         0.0624 
    137 H137       33.5281   -0.9112   -3.6073 H         1 UNK         0.0624 
@<TRIPOS>BOND
     1    1    2 1    
     2    1   72 1    
     3    1   73 1    
     4    1   74 1    
     5    2    3 2    
     6    2    4 am   BACKBONE|DICT|INTERRES
     7    4    5 1    
     8    4   75 1    
     9    5    6 1    
    10    5   35 1    
    11    5   76 1    
    12    6    7 1    
    13    6   77 1    
    14    6   78 1    
    15    7    8 1    
    16    8    9 1    
    17    8   79 1    
    18    8   80 1    
    19    9   10 ar   
    20    9   14 ar   
    21   10   11 ar   
    22   10   81 1    
    23   11   12 ar   
    24   11   71 1    
    25   12   13 ar   
    26   12   82 1    
    27   13   14 ar   
    28   13   15 1    
    29   14   83 1    
    30   15   16 1    
    31   15   84 1    
    32   15   85 1    
    33   16   17 1    
    34   17   18 1    
    35   17   86 1    
    36   17   87 1    
    37   18   19 1    
    38   18   37 1    
    39   18   88 1    
    40   19   20 am   BACKBONE|DICT|INTERRES
    41   19   89 1    
    42   20   21 2    
    43   20   22 1    
    44   22   23 1    
    45   22   24 1    
    46   22   90 1    
    47   23   91 1    
    48   23   92 1    
    49   23   93 1    
    50   24   25 am   BACKBONE|DICT|INTERRES
    51   24   94 1    
    52   25   26 2    
    53   25   27 1    
    54   27   28 1    
    55   27   29 1    
    56   27   95 1    
    57   28   96 1    
    58   28   97 1    
    59   28   98 1    
    60   29   30 am   BACKBONE|DICT|INTERRES
    61   29   99 1    
    62   30   31 2    
    63   30   32 1    
    64   32   33 1    
    65   32   34 1    
    66   32  100 1    
    67   33  101 1    
    68   33  102 1    
    69   33  103 1    
    70   34   35 am   BACKBONE|DICT|INTERRES
    71   34  104 1    
    72   35   36 2    
    73   37   38 2    
    74   37   39 am   BACKBONE|DICT|INTERRES
    75   39   40 1    
    76   39  105 1    
    77   40   41 1    
    78   40   42 1    
    79   40  106 1    
    80   41  107 1    
    81   41  108 1    
    82   41  109 1    
    83   42   43 2    
    84   42   44 am   BACKBONE|DICT|INTERRES
    85   44   45 1    
    86   44  110 1    
    87   45   46 1    
    88   45   47 1    
    89   45  111 1    
    90   46  112 1    
    91   46  113 1    
    92   46  114 1    
    93   47   48 2    
    94   47   49 am   BACKBONE|DICT|INTERRES
    95   49   50 1    
    96   49  115 1    
    97   50   51 1    
    98   50   52 1    
    99   50  116 1    
   100   51  117 1    
   101   51  118 1    
   102   51  119 1    
   103   52   53 2    
   104   52   54 am   BACKBONE|DICT|INTERRES
   105   54   55 1    
   106   54  120 1    
   107   55   56 1    
   108   55   57 1    
   109   55  121 1    
   110   56  122 1    
   111   56  123 1    
   112   56  124 1    
   113   57   58 2    
   114   57   59 am   BACKBONE|DICT|INTERRES
   115   59   60 1    
   116   59  125 1    
   117   60   61 1    
   118   60   62 1    
   119   60  126 1    
   120   61  127 1    
   121   61  128 1    
   122   61  129 1    
   123   62   63 2    
   124   62   64 am   BACKBONE|DICT|INTERRES
   125   64   65 1    
   126   64  130 1    
   127   65   66 1    
   128   65   69 1    
   129   65  131 1    
   130   66   67 am   BACKBONE|DICT|INTERRES
   131   66   68 2    
   132   67  132 1    
   133   67  133 1    
   134   69   70 1    
   135   69  134 1    
   136   69  135 1    
   137   70   71 1    
   138   71  136 1    
   139   71  137 1    
@<TRIPOS>SUBSTRUCTURE
     1 UNK         1 GROUP             0       ****    0 ROOT    
