@<TRIPOS>MOLECULE
3R137
137   139    1
SMALL
USER_CHARGES


@<TRIPOS>ATOM
      1 CA         27.4276    1.1668   -1.6416 C.3       0 UNK        -0.2020 
      2 C          27.3333   -0.2853   -2.0799 C.2       0 UNK         0.4855 
      3 O          26.8919   -0.5668   -3.1940 O.2       0 UNK        -0.5197 
      4 N          27.7434   -1.2101   -1.2025 N.am      1 UNK        -0.4892 
      5 CA         27.5953   -2.6590   -1.3916 C.3       1 UNK         0.0835 
      6 C6         28.5449   -3.4431   -0.4491 C.3       12 UNK        -0.0855 
      7 S7         28.7610   -5.1909   -0.9350 S.3       12 UNK        -0.2931 
      8 C8         30.4336   -5.1962   -1.6604 C.3       12 UNK         0.0378 
      9 C9         30.5159   -4.3620   -2.9315 C.ar      12 UNK        -0.0802 
     10 C10        31.2988   -3.2031   -2.9661 C.ar      12 UNK        -0.0944 
     11 C11        31.3842   -2.4309   -4.1291 C.ar      12 UNK        -0.0787 
     12 C12        30.6515   -2.8226   -5.2552 C.ar      12 UNK        -0.0862 
     13 C13        29.8708   -3.9818   -5.2397 C.ar      12 UNK        -0.0733 
     14 C14        29.8170   -4.7552   -4.0772 C.ar      12 UNK        -0.0832 
     15 C15        29.0968   -4.3926   -6.4870 C.3       12 UNK         0.0240 
     16 S16        27.2915   -4.4938   -6.2388 S.3       12 UNK        -0.2522 
     17 C17        26.8786   -2.9071   -5.4413 C.3       12 UNK        -0.0967 
     18 CA         26.6707   -1.7347   -6.4371 C.3       5 UNK         0.0660 
     19 N          25.5683   -0.8631   -6.0197 N.am      5 UNK        -0.4015 
     20 C          25.0926    0.1971   -6.6901 C.2       4 UNK         0.4946 
     21 O          25.5723    0.5949   -7.7530 O.2       4 UNK        -0.5353 
     22 CA         23.8775    0.9299   -6.0823 C.3       4 UNK         0.0277 
     23 CB         22.9492    1.4938   -7.1739 C.3       4 UNK        -0.1981 
     24 N          23.1011    0.0485   -5.2030 N.am      4 UNK        -0.4209 
     25 C          23.2704   -0.0642   -3.8797 C.2       3 UNK         0.4942 
     26 O          24.0053    0.6749   -3.2221 O.2       3 UNK        -0.5208 
     27 CA         22.5490   -1.2288   -3.1814 C.3       3 UNK         0.0250 
     28 CB         22.3235   -2.4491   -4.1077 C.3       3 UNK        -0.1990 
     29 N          23.3511   -1.6078   -2.0206 N.am      3 UNK        -0.4232 
     30 C          22.9740   -2.3965   -1.0084 C.2       2 UNK         0.4993 
     31 O          21.8513   -2.8974   -0.9205 O.2       2 UNK        -0.5286 
     32 CA         24.0104   -2.6540    0.1067 C.3       2 UNK         0.0209 
     33 CB         23.8456   -4.0476    0.7516 C.3       2 UNK        -0.1931 
     34 N          25.4105   -2.4316   -0.2907 N.am      2 UNK        -0.4546 
     35 C          26.1196   -3.0922   -1.2236 C.2       1 UNK         0.5154 
     36 O          25.6551   -3.9758   -1.9442 O.2       1 UNK        -0.5181 
     37 C          27.9735   -0.9420   -6.6483 C.2       5 UNK         0.5014 
     38 O          28.6362   -1.1181   -7.6705 O.2       5 UNK        -0.5248 
     39 N          28.2867   -0.0491   -5.6981 N.am      6 UNK        -0.4434 
     40 CA         29.4439    0.8465   -5.7453 C.3       6 UNK         0.0363 
     41 CB         29.5464    1.6382   -4.4345 C.3       6 UNK        -0.1936 
     42 C          29.4443    1.8049   -6.9440 C.2       6 UNK         0.5081 
     43 O          30.5144    2.0833   -7.4838 O.2       6 UNK        -0.5248 
     44 N          28.2573    2.2759   -7.3481 N.am      7 UNK        -0.4718 
     45 CA         28.0733    3.1186   -8.5293 C.3       7 UNK         0.0273 
     46 CB         26.7262    3.8544   -8.4418 C.3       7 UNK        -0.1935 
     47 C          28.1736    2.3021   -9.8261 C.2       7 UNK         0.5018 
     48 O          28.8137    2.7573  -10.7736 O.2       7 UNK        -0.5186 
     49 N          27.5643    1.1073   -9.8349 N.am      8 UNK        -0.4240 
     50 CA         27.5776    0.1673  -10.9583 C.3       8 UNK         0.0235 
     51 CB         26.5974   -0.9836  -10.6781 C.3       8 UNK        -0.2000 
     52 C          28.9821   -0.3735  -11.2765 C.2       8 UNK         0.4941 
     53 O          29.3706   -0.3931  -12.4451 O.2       8 UNK        -0.5273 
     54 N          29.7207   -0.7878  -10.2380 N.am      9 UNK        -0.4262 
     55 CA         31.0946   -1.2876  -10.3476 C.3       9 UNK         0.0264 
     56 CB         31.4057   -2.1709   -9.1310 C.3       9 UNK        -0.1955 
     57 C          32.1466   -0.1711  -10.4657 C.2       9 UNK         0.5031 
     58 O          33.2728   -0.4645  -10.8695 O.2       9 UNK        -0.5390 
     59 N          31.7741    1.0650  -10.1000 N.am      10 UNK        -0.4204 
     60 CA         32.6142    2.2639  -10.0134 C.3       10 UNK         0.0237 
     61 CB         33.1228    2.6933  -11.4066 C.3       10 UNK        -0.1985 
     62 C          33.7383    2.0963   -8.9728 C.2       10 UNK         0.4970 
     63 O          34.9181    2.2302   -9.3045 O.2       10 UNK        -0.4914 
     64 N          33.3414    1.7981   -7.7283 N.am      11 UNK        -0.4285 
     65 CA         34.2450    1.6539   -6.5725 C.3       11 UNK         0.1007 
     66 C          34.9106    2.9833   -6.1076 C.2       11 UNK         0.5703 
     67 N          34.4023    4.1516   -6.4836 N.am      11 UNK        -0.7361 
     68 O          35.9110    2.9514   -5.3948 O.2       11 UNK        -0.4986 
     69 C69        33.5554    0.9538   -5.3712 C.3       12 UNK        -0.0947 
     70 S70        33.0065   -0.7461   -5.7279 S.3       12 UNK        -0.2240 
     71 C71        32.2341   -1.1599   -4.1230 C.3       12 UNK         0.0194 
     72 H72        28.4668    1.4658   -1.5103 H         1 UNK         0.0906 
     73 H73        26.9718    1.8208   -2.3849 H         1 UNK         0.0906 
     74 H74        26.9021    1.3174   -0.6991 H         1 UNK         0.0906 
     75 H75        28.1320   -0.9135   -0.3178 H         1 UNK         0.3140 
     76 H76        27.8862   -2.8878   -2.4182 H         1 UNK         0.1085 
     77 H77        29.5275   -2.9687   -0.4349 H         1 UNK         0.0836 
     78 H78        28.1880   -3.4086    0.5821 H         1 UNK         0.0836 
     79 H79        31.1501   -4.8483   -0.9144 H         1 UNK         0.0731 
     80 H80        30.7125   -6.2249   -1.8930 H         1 UNK         0.0731 
     81 H81        31.8434   -2.8991   -2.0824 H         1 UNK         0.1312 
     82 H82        30.6837   -2.2217   -6.1508 H         1 UNK         0.1406 
     83 H83        29.2120   -5.6519   -4.0565 H         1 UNK         0.1631 
     84 H84        29.4585   -5.3655   -6.8220 H         1 UNK         0.0717 
     85 H85        29.2898   -3.7017   -7.3072 H         1 UNK         0.0717 
     86 H86        27.6153   -2.6682   -4.6746 H         1 UNK         0.0934 
     87 H87        25.9588   -3.0955   -4.8848 H         1 UNK         0.0934 
     88 H88        26.3773   -2.1418   -7.4067 H         1 UNK         0.0739 
     89 H89        25.1742   -1.0567   -5.1113 H         1 UNK         0.3093 
     90 H90        24.2700    1.7726   -5.5091 H         1 UNK         0.0818 
     91 H91        22.0939    2.0110   -6.7388 H         1 UNK         0.0819 
     92 H92        23.4735    2.2152   -7.8023 H         1 UNK         0.0819 
     93 H93        22.5704    0.7074   -7.8278 H         1 UNK         0.0819 
     94 H94        22.4841   -0.6065   -5.6629 H         1 UNK         0.3041 
     95 H95        21.5843   -0.8559   -2.8320 H         1 UNK         0.0784 
     96 H96        21.6579   -2.2093   -4.9373 H         1 UNK         0.0793 
     97 H97        23.2614   -2.8191   -4.5243 H         1 UNK         0.0793 
     98 H98        21.8567   -3.2770   -3.5745 H         1 UNK         0.0793 
     99 H99        24.2653   -1.1729   -1.9905 H         1 UNK         0.3024 
    100 H100       23.7939   -1.9124    0.8776 H         1 UNK         0.1171 
    101 H101       24.5686   -4.2030    1.5523 H         1 UNK         0.0786 
    102 H102       23.9748   -4.8482    0.0226 H         1 UNK         0.0786 
    103 H103       22.8530   -4.1645    1.1886 H         1 UNK         0.0786 
    104 H104       25.8898   -1.6994    0.2146 H         1 UNK         0.2977 
    105 H105       27.7073   -0.0234   -4.8621 H         1 UNK         0.3127 
    106 H106       30.3287    0.2205   -5.8433 H         1 UNK         0.0770 
    107 H107       30.4055    2.3102   -4.4479 H         1 UNK         0.0814 
    108 H108       29.6715    0.9735   -3.5815 H         1 UNK         0.0814 
    109 H109       28.6594    2.2487   -4.2627 H         1 UNK         0.0814 
    110 H110       27.4223    1.9514   -6.8815 H         1 UNK         0.2983 
    111 H111       28.8672    3.8691   -8.5465 H         1 UNK         0.0947 
    112 H112       26.5892    4.5151   -9.2989 H         1 UNK         0.0806 
    113 H113       26.6695    4.4721   -7.5454 H         1 UNK         0.0806 
    114 H114       25.8828    3.1638   -8.4271 H         1 UNK         0.0806 
    115 H115       27.0208    0.8364   -9.0188 H         1 UNK         0.3000 
    116 H116       27.2241    0.7059  -11.8401 H         1 UNK         0.0850 
    117 H117       26.5581   -1.6766  -11.5195 H         1 UNK         0.0810 
    118 H118       25.5857   -0.6115  -10.5152 H         1 UNK         0.0810 
    119 H119       26.8871   -1.5561   -9.7966 H         1 UNK         0.0810 
    120 H120       29.3038   -0.7926   -9.3060 H         1 UNK         0.3040 
    121 H121       31.1711   -1.9068  -11.2440 H         1 UNK         0.0766 
    122 H122       32.4092   -2.5935   -9.1965 H         1 UNK         0.0812 
    123 H123       31.3546   -1.5965   -8.2067 H         1 UNK         0.0812 
    124 H124       30.7071   -3.0033   -9.0567 H         1 UNK         0.0812 
    125 H125       30.8308    1.1796   -9.7542 H         1 UNK         0.3205 
    126 H126       31.9683    3.0625   -9.6450 H         1 UNK         0.0754 
    127 H127       33.6582    3.6417  -11.3489 H         1 UNK         0.0769 
    128 H128       32.2955    2.8295  -12.1033 H         1 UNK         0.0769 
    129 H129       33.8068    1.9615  -11.8374 H         1 UNK         0.0769 
    130 H130       32.3432    1.7480   -7.5384 H         1 UNK         0.2981 
    131 H131       35.0665    1.0104   -6.8931 H         1 UNK         0.0541 
    132 H132       33.5775    4.1887   -7.0602 H         1 UNK         0.3459 
    133 H133       34.8456    5.0037   -6.1787 H         1 UNK         0.3459 
    134 H134       32.6943    1.5377   -5.0422 H         1 UNK         0.0612 
    135 H135       34.2342    0.8989   -4.5177 H         1 UNK         0.0612 
    136 H136       33.0308   -1.2483   -3.3828 H         1 UNK         0.0624 
    137 H137       31.6058   -0.3318   -3.7990 H         1 UNK         0.0624 
@<TRIPOS>BOND
     1    1    2 1    
     2    1   72 1    
     3    1   73 1    
     4    1   74 1    
     5    2    3 2    
     6    2    4 am   BACKBONE|DICT|INTERRES
     7    4    5 1    
     8    4   75 1    
     9    5    6 1    
    10    5   35 1    
    11    5   76 1    
    12    6    7 1    
    13    6   77 1    
    14    6   78 1    
    15    7    8 1    
    16    8    9 1    
    17    8   79 1    
    18    8   80 1    
    19    9   10 ar   
    20    9   14 ar   
    21   10   11 ar   
    22   10   81 1    
    23   11   12 ar   
    24   11   71 1    
    25   12   13 ar   
    26   12   82 1    
    27   13   14 ar   
    28   13   15 1    
    29   14   83 1    
    30   15   16 1    
    31   15   84 1    
    32   15   85 1    
    33   16   17 1    
    34   17   18 1    
    35   17   86 1    
    36   17   87 1    
    37   18   19 1    
    38   18   37 1    
    39   18   88 1    
    40   19   20 am   BACKBONE|DICT|INTERRES
    41   19   89 1    
    42   20   21 2    
    43   20   22 1    
    44   22   23 1    
    45   22   24 1    
    46   22   90 1    
    47   23   91 1    
    48   23   92 1    
    49   23   93 1    
    50   24   25 am   BACKBONE|DICT|INTERRES
    51   24   94 1    
    52   25   26 2    
    53   25   27 1    
    54   27   28 1    
    55   27   29 1    
    56   27   95 1    
    57   28   96 1    
    58   28   97 1    
    59   28   98 1    
    60   29   30 am   BACKBONE|DICT|INTERRES
    61   29   99 1    
    62   30   31 2    
    63   30   32 1    
    64   32   33 1    
    65   32   34 1    
    66   32  100 1    
    67   33  101 1    
    68   33  102 1    
    69   33  103 1    
    70   34   35 am   BACKBONE|DICT|INTERRES
    71   34  104 1    
    72   35   36 2    
    73   37   38 2    
    74   37   39 am   BACKBONE|DICT|INTERRES
    75   39   40 1    
    76   39  105 1    
    77   40   41 1    
    78   40   42 1    
    79   40  106 1    
    80   41  107 1    
    81   41  108 1    
    82   41  109 1    
    83   42   43 2    
    84   42   44 am   BACKBONE|DICT|INTERRES
    85   44   45 1    
    86   44  110 1    
    87   45   46 1    
    88   45   47 1    
    89   45  111 1    
    90   46  112 1    
    91   46  113 1    
    92   46  114 1    
    93   47   48 2    
    94   47   49 am   BACKBONE|DICT|INTERRES
    95   49   50 1    
    96   49  115 1    
    97   50   51 1    
    98   50   52 1    
    99   50  116 1    
   100   51  117 1    
   101   51  118 1    
   102   51  119 1    
   103   52   53 2    
   104   52   54 am   BACKBONE|DICT|INTERRES
   105   54   55 1    
   106   54  120 1    
   107   55   56 1    
   108   55   57 1    
   109   55  121 1    
   110   56  122 1    
   111   56  123 1    
   112   56  124 1    
   113   57   58 2    
   114   57   59 am   BACKBONE|DICT|INTERRES
   115   59   60 1    
   116   59  125 1    
   117   60   61 1    
   118   60   62 1    
   119   60  126 1    
   120   61  127 1    
   121   61  128 1    
   122   61  129 1    
   123   62   63 2    
   124   62   64 am   BACKBONE|DICT|INTERRES
   125   64   65 1    
   126   64  130 1    
   127   65   66 1    
   128   65   69 1    
   129   65  131 1    
   130   66   67 am   BACKBONE|DICT|INTERRES
   131   66   68 2    
   132   67  132 1    
   133   67  133 1    
   134   69   70 1    
   135   69  134 1    
   136   69  135 1    
   137   70   71 1    
   138   71  136 1    
   139   71  137 1    
@<TRIPOS>SUBSTRUCTURE
     1 UNK         1 GROUP             0       ****    0 ROOT    
