@<TRIPOS>MOLECULE
3R137
137   139    1
SMALL
USER_CHARGES


@<TRIPOS>ATOM
      1 CA         26.0049   -6.4810    1.8449 C.3       0 UNK        -0.2020 
      2 C          26.4489   -5.0374    2.0285 C.2       0 UNK         0.4855 
      3 O          26.6152   -4.5860    3.1622 O.2       0 UNK        -0.5197 
      4 N          26.6366   -4.3093    0.9251 N.am      1 UNK        -0.4892 
      5 CA         27.0473   -2.9074    0.8874 C.3       1 UNK         0.0835 
      6 C6         28.5670   -2.7123    1.1713 C.3       12 UNK        -0.0855 
      7 S7         29.6870   -3.5583   -0.0070 S.3       12 UNK        -0.2931 
      8 C8         30.1570   -2.1843   -1.1172 C.3       12 UNK         0.0378 
      9 C9         30.2475   -2.6014   -2.5818 C.ar      12 UNK        -0.0802 
     10 C10        31.3331   -2.1923   -3.3618 C.ar      12 UNK        -0.0944 
     11 C11        31.3978   -2.5130   -4.7226 C.ar      12 UNK        -0.0787 
     12 C12        30.3686   -3.2648   -5.3027 C.ar      12 UNK        -0.0862 
     13 C13        29.2871   -3.6993   -4.5287 C.ar      12 UNK        -0.0733 
     14 C14        29.2305   -3.3551   -3.1763 C.ar      12 UNK        -0.0832 
     15 C15        28.2010   -4.5865   -5.1213 C.3       12 UNK         0.0240 
     16 S16        26.6007   -3.7228   -5.2677 S.3       12 UNK        -0.2522 
     17 C17        26.3832   -3.5872   -7.0805 C.3       12 UNK        -0.0967 
     18 CA         26.2916   -2.1334   -7.6014 C.3       5 UNK         0.0660 
     19 N          25.1876   -1.3931   -6.9837 N.am      5 UNK        -0.4015 
     20 C          24.8035   -0.1451   -7.2773 C.2       4 UNK         0.4946 
     21 O          25.3689    0.5547   -8.1189 O.2       4 UNK        -0.5353 
     22 CA         23.6190    0.4491   -6.4898 C.3       4 UNK         0.0277 
     23 CB         22.3093    0.3086   -7.2886 C.3       4 UNK        -0.1981 
     24 N          23.4636   -0.0452   -5.1100 N.am      4 UNK        -0.4209 
     25 C          23.1497   -1.2748   -4.6760 C.2       3 UNK         0.4942 
     26 O          22.9595   -2.2346   -5.4244 O.2       3 UNK        -0.5208 
     27 CA         23.1171   -1.4697   -3.1481 C.3       3 UNK         0.0250 
     28 CB         22.5668   -2.8488   -2.7394 C.3       3 UNK        -0.1990 
     29 N          24.4528   -1.3098   -2.5710 N.am      3 UNK        -0.4232 
     30 C          25.0863   -0.1507   -2.3648 C.2       2 UNK         0.4993 
     31 O          24.5709    0.9449   -2.5985 O.2       2 UNK        -0.5286 
     32 CA         26.5362   -0.2327   -1.8436 C.3       2 UNK         0.0209 
     33 CB         27.1716    1.1576   -1.6485 C.3       2 UNK        -0.1931 
     34 N          26.6865   -0.9884   -0.5948 N.am      2 UNK        -0.4546 
     35 C          26.6169   -2.3201   -0.4685 C.2       1 UNK         0.5154 
     36 O          26.2687   -3.0757   -1.3817 O.2       1 UNK        -0.5181 
     37 C          27.6496   -1.4098   -7.5182 C.2       5 UNK         0.5014 
     38 O          28.4218   -1.4754   -8.4732 O.2       5 UNK        -0.5248 
     39 N          27.8984   -0.7006   -6.4089 N.am      6 UNK        -0.4434 
     40 CA         29.1035    0.1003   -6.1961 C.3       6 UNK         0.0363 
     41 CB         29.1588    0.5707   -4.7358 C.3       6 UNK        -0.1936 
     42 C          29.2070    1.2978   -7.1529 C.2       6 UNK         0.5081 
     43 O          30.3013    1.6021   -7.6287 O.2       6 UNK        -0.5248 
     44 N          28.0638    1.9350   -7.4421 N.am      7 UNK        -0.4718 
     45 CA         27.9537    3.0332   -8.4026 C.3       7 UNK         0.0273 
     46 CB         26.6500    3.8105   -8.1593 C.3       7 UNK        -0.1935 
     47 C          28.0330    2.5309   -9.8515 C.2       7 UNK         0.5018 
     48 O          28.6486    3.1982  -10.6821 O.2       7 UNK        -0.5186 
     49 N          27.4452    1.3546  -10.1193 N.am      8 UNK        -0.4240 
     50 CA         27.5238    0.6614  -11.4085 C.3       8 UNK         0.0235 
     51 CB         26.5437   -0.5223  -11.4261 C.3       8 UNK        -0.2000 
     52 C          28.9538    0.1997  -11.7423 C.2       8 UNK         0.4941 
     53 O          29.4007    0.3905  -12.8739 O.2       8 UNK        -0.5273 
     54 N          29.6536   -0.3683  -10.7488 N.am      9 UNK        -0.4262 
     55 CA         31.0691   -0.7408  -10.8291 C.3       9 UNK         0.0264 
     56 CB         31.4246   -1.6448   -9.6356 C.3       9 UNK        -0.1955 
     57 C          32.0128    0.4741  -10.8619 C.2       9 UNK         0.5031 
     58 O          33.1088    0.3639  -11.4130 O.2       9 UNK        -0.5390 
     59 N          31.5786    1.5879  -10.2523 N.am      10 UNK        -0.4204 
     60 CA         32.3148    2.8348  -10.0200 C.3       10 UNK         0.0237 
     61 CB         32.6355    3.5501  -11.3497 C.3       10 UNK        -0.1985 
     62 C          33.5503    2.6148   -9.1258 C.2       10 UNK         0.4970 
     63 O          34.6107    3.1878   -9.3842 O.2       10 UNK        -0.4914 
     64 N          33.3902    1.7710   -8.0977 N.am      11 UNK        -0.4285 
     65 CA         34.4539    1.3862   -7.1574 C.3       11 UNK         0.1007 
     66 C          34.7412    2.4255   -6.0339 C.2       11 UNK         0.5703 
     67 N          33.9385    3.4715   -5.8731 N.am      11 UNK        -0.7361 
     68 O          35.7232    2.2894   -5.3076 O.2       11 UNK        -0.4986 
     69 C69        34.2386   -0.0496   -6.6092 C.3       12 UNK        -0.0947 
     70 S70        32.6947   -0.2500   -5.6630 S.3       12 UNK        -0.2240 
     71 C71        32.5933   -2.0630   -5.5529 C.3       12 UNK         0.0194 
     72 H72        25.8994   -6.7440    0.7924 H         1 UNK         0.0906 
     73 H73        26.7338   -7.1569    2.2912 H         1 UNK         0.0906 
     74 H74        25.0446   -6.6438    2.3333 H         1 UNK         0.0906 
     75 H75        26.4502   -4.6911    0.0047 H         1 UNK         0.3140 
     76 H76        26.4793   -2.3734    1.6527 H         1 UNK         0.1085 
     77 H77        28.8172   -1.6511    1.2180 H         1 UNK         0.0836 
     78 H78        28.7958   -3.0945    2.1671 H         1 UNK         0.0836 
     79 H79        29.4348   -1.3716   -1.0485 H         1 UNK         0.0731 
     80 H80        31.1079   -1.7759   -0.7715 H         1 UNK         0.0731 
     81 H81        32.1256   -1.6057   -2.9174 H         1 UNK         0.1312 
     82 H82        30.4167   -3.5246   -6.3515 H         1 UNK         0.1406 
     83 H83        28.3906   -3.6882   -2.5839 H         1 UNK         0.1631 
     84 H84        28.0616   -5.4495   -4.4686 H         1 UNK         0.0717 
     85 H85        28.5194   -4.9949   -6.0806 H         1 UNK         0.0717 
     86 H86        27.1721   -4.1251   -7.6087 H         1 UNK         0.0934 
     87 H87        25.4634   -4.1162   -7.3353 H         1 UNK         0.0934 
     88 H88        26.0462   -2.1925   -8.6630 H         1 UNK         0.0739 
     89 H89        24.6159   -1.9073   -6.3192 H         1 UNK         0.3093 
     90 H90        23.8282    1.5158   -6.3932 H         1 UNK         0.0818 
     91 H91        21.4798    0.7994   -6.7797 H         1 UNK         0.0819 
     92 H92        22.4036    0.7699   -8.2728 H         1 UNK         0.0819 
     93 H93        22.0362   -0.7351   -7.4468 H         1 UNK         0.0819 
     94 H94        23.6821    0.6324   -4.3839 H         1 UNK         0.3041 
     95 H95        22.4554   -0.7072   -2.7314 H         1 UNK         0.0784 
     96 H96        21.5666   -3.0070   -3.1449 H         1 UNK         0.0793 
     97 H97        23.1999   -3.6598   -3.1028 H         1 UNK         0.0793 
     98 H98        22.4953   -2.9413   -1.6556 H         1 UNK         0.0793 
     99 H99        24.9622   -2.1616   -2.3438 H         1 UNK         0.3024 
    100 H100       27.1072   -0.7503   -2.6180 H         1 UNK         0.1171 
    101 H101       28.2332    1.0800   -1.4128 H         1 UNK         0.0786 
    102 H102       27.0877    1.7642   -2.5507 H         1 UNK         0.0786 
    103 H103       26.6869    1.7116   -0.8436 H         1 UNK         0.0786 
    104 H104       26.9306   -0.4418    0.2188 H         1 UNK         0.2977 
    105 H105       27.2179   -0.7255   -5.6652 H         1 UNK         0.3127 
    106 H106       29.9584   -0.5476   -6.3884 H         1 UNK         0.0770 
    107 H107       28.3249    1.2291   -4.4942 H         1 UNK         0.0814 
    108 H108       30.0786    1.1240   -4.5417 H         1 UNK         0.0814 
    109 H109       29.1407   -0.2726   -4.0465 H         1 UNK         0.0814 
    110 H110       27.1981    1.5750   -7.0648 H         1 UNK         0.2983 
    111 H111       28.7910    3.7165   -8.2418 H         1 UNK         0.0947 
    112 H112       26.5716    4.6585   -8.8410 H         1 UNK         0.0806 
    113 H113       26.6079    4.2066   -7.1446 H         1 UNK         0.0806 
    114 H114       25.7682    3.1881   -8.3137 H         1 UNK         0.0806 
    115 H115       26.9038    0.9103   -9.3836 H         1 UNK         0.3000 
    116 H116       27.2141    1.3687  -12.1810 H         1 UNK         0.0850 
    117 H117       26.5173   -0.9882  -12.4120 H         1 UNK         0.0810 
    118 H118       25.5284   -0.2031  -11.1894 H         1 UNK         0.0810 
    119 H119       26.8285   -1.2939  -10.7118 H         1 UNK         0.0810 
    120 H120       29.1792   -0.5809   -9.8718 H         1 UNK         0.3040 
    121 H121       31.2216   -1.3073  -11.7500 H         1 UNK         0.0766 
    122 H122       31.2740   -1.1336   -8.6834 H         1 UNK         0.0812 
    123 H123       32.4691   -1.9565   -9.6766 H         1 UNK         0.0812 
    124 H124       30.8159   -2.5491   -9.6277 H         1 UNK         0.0812 
    125 H125       30.6893    1.5307   -9.7711 H         1 UNK         0.3205 
    126 H126       31.6416    3.4805   -9.4541 H         1 UNK         0.0754 
    127 H127       33.0640    4.5366  -11.1688 H         1 UNK         0.0769 
    128 H128       31.7346    3.6928  -11.9467 H         1 UNK         0.0769 
    129 H129       33.3520    2.9899  -11.9511 H         1 UNK         0.0769 
    130 H130       32.4673    1.3972   -7.9086 H         1 UNK         0.2981 
    131 H131       35.3811    1.3444   -7.7322 H         1 UNK         0.0541 
    132 H132       33.1269    3.5842   -6.4583 H         1 UNK         0.3459 
    133 H133       34.1386    4.1415   -5.1477 H         1 UNK         0.3459 
    134 H134       35.0763   -0.3513   -5.9778 H         1 UNK         0.0612 
    135 H135       34.2241   -0.7542   -7.4423 H         1 UNK         0.0612 
    136 H136       33.5084   -2.4481   -5.1010 H         1 UNK         0.0624 
    137 H137       32.5424   -2.4768   -6.5613 H         1 UNK         0.0624 
@<TRIPOS>BOND
     1    1    2 1    
     2    1   72 1    
     3    1   73 1    
     4    1   74 1    
     5    2    3 2    
     6    2    4 am   BACKBONE|DICT|INTERRES
     7    4    5 1    
     8    4   75 1    
     9    5    6 1    
    10    5   35 1    
    11    5   76 1    
    12    6    7 1    
    13    6   77 1    
    14    6   78 1    
    15    7    8 1    
    16    8    9 1    
    17    8   79 1    
    18    8   80 1    
    19    9   10 ar   
    20    9   14 ar   
    21   10   11 ar   
    22   10   81 1    
    23   11   12 ar   
    24   11   71 1    
    25   12   13 ar   
    26   12   82 1    
    27   13   14 ar   
    28   13   15 1    
    29   14   83 1    
    30   15   16 1    
    31   15   84 1    
    32   15   85 1    
    33   16   17 1    
    34   17   18 1    
    35   17   86 1    
    36   17   87 1    
    37   18   19 1    
    38   18   37 1    
    39   18   88 1    
    40   19   20 am   BACKBONE|DICT|INTERRES
    41   19   89 1    
    42   20   21 2    
    43   20   22 1    
    44   22   23 1    
    45   22   24 1    
    46   22   90 1    
    47   23   91 1    
    48   23   92 1    
    49   23   93 1    
    50   24   25 am   BACKBONE|DICT|INTERRES
    51   24   94 1    
    52   25   26 2    
    53   25   27 1    
    54   27   28 1    
    55   27   29 1    
    56   27   95 1    
    57   28   96 1    
    58   28   97 1    
    59   28   98 1    
    60   29   30 am   BACKBONE|DICT|INTERRES
    61   29   99 1    
    62   30   31 2    
    63   30   32 1    
    64   32   33 1    
    65   32   34 1    
    66   32  100 1    
    67   33  101 1    
    68   33  102 1    
    69   33  103 1    
    70   34   35 am   BACKBONE|DICT|INTERRES
    71   34  104 1    
    72   35   36 2    
    73   37   38 2    
    74   37   39 am   BACKBONE|DICT|INTERRES
    75   39   40 1    
    76   39  105 1    
    77   40   41 1    
    78   40   42 1    
    79   40  106 1    
    80   41  107 1    
    81   41  108 1    
    82   41  109 1    
    83   42   43 2    
    84   42   44 am   BACKBONE|DICT|INTERRES
    85   44   45 1    
    86   44  110 1    
    87   45   46 1    
    88   45   47 1    
    89   45  111 1    
    90   46  112 1    
    91   46  113 1    
    92   46  114 1    
    93   47   48 2    
    94   47   49 am   BACKBONE|DICT|INTERRES
    95   49   50 1    
    96   49  115 1    
    97   50   51 1    
    98   50   52 1    
    99   50  116 1    
   100   51  117 1    
   101   51  118 1    
   102   51  119 1    
   103   52   53 2    
   104   52   54 am   BACKBONE|DICT|INTERRES
   105   54   55 1    
   106   54  120 1    
   107   55   56 1    
   108   55   57 1    
   109   55  121 1    
   110   56  122 1    
   111   56  123 1    
   112   56  124 1    
   113   57   58 2    
   114   57   59 am   BACKBONE|DICT|INTERRES
   115   59   60 1    
   116   59  125 1    
   117   60   61 1    
   118   60   62 1    
   119   60  126 1    
   120   61  127 1    
   121   61  128 1    
   122   61  129 1    
   123   62   63 2    
   124   62   64 am   BACKBONE|DICT|INTERRES
   125   64   65 1    
   126   64  130 1    
   127   65   66 1    
   128   65   69 1    
   129   65  131 1    
   130   66   67 am   BACKBONE|DICT|INTERRES
   131   66   68 2    
   132   67  132 1    
   133   67  133 1    
   134   69   70 1    
   135   69  134 1    
   136   69  135 1    
   137   70   71 1    
   138   71  136 1    
   139   71  137 1    
@<TRIPOS>SUBSTRUCTURE
     1 UNK         1 GROUP             0       ****    0 ROOT    
