@<TRIPOS>MOLECULE
3R137
137   139    1
SMALL
USER_CHARGES


@<TRIPOS>ATOM
      1 CA         24.6176   -4.2197   -8.0060 C.3       0 UNK        -0.2020 
      2 C          24.9048   -5.0824   -6.7869 C.2       0 UNK         0.4855 
      3 O          24.1751   -6.0382   -6.5245 O.2       0 UNK        -0.5197 
      4 N          25.9566   -4.7494   -6.0285 N.am      1 UNK        -0.4892 
      5 CA         26.4588   -5.4762   -4.8530 C.3       1 UNK         0.0835 
      6 C6         27.9654   -5.1788   -4.6284 C.3       12 UNK        -0.0855 
      7 S7         28.3511   -3.4021   -4.4209 S.3       12 UNK        -0.2931 
      8 C8         29.5579   -3.4859   -3.0615 C.3       12 UNK         0.0378 
      9 C9         30.1102   -2.1057   -2.7499 C.ar      12 UNK        -0.0802 
     10 C10        31.2850   -1.6571   -3.3632 C.ar      12 UNK        -0.0944 
     11 C11        31.7624   -0.3659   -3.1168 C.ar      12 UNK        -0.0787 
     12 C12        31.0563    0.4771   -2.2548 C.ar      12 UNK        -0.0862 
     13 C13        29.8746    0.0421   -1.6482 C.ar      12 UNK        -0.0733 
     14 C14        29.4202   -1.2602   -1.8770 C.ar      12 UNK        -0.0832 
     15 C15        29.0427    1.0062   -0.8177 C.3       12 UNK         0.0240 
     16 S16        27.4861    1.4395   -1.6652 S.3       12 UNK        -0.2522 
     17 C17        28.0701    2.0867   -3.2759 C.3       12 UNK        -0.0967 
     18 CA         28.0941    1.0010   -4.3971 C.3       5 UNK         0.0660 
     19 N          26.8254    0.2828   -4.5353 N.am      5 UNK        -0.4015 
     20 C          25.6661    0.7795   -4.9886 C.2       4 UNK         0.4946 
     21 O          25.5182    1.9271   -5.4116 O.2       4 UNK        -0.5353 
     22 CA         24.4578   -0.1709   -4.9358 C.3       4 UNK         0.0277 
     23 CB         24.3937   -1.0388   -6.2016 C.3       4 UNK        -0.1981 
     24 N          24.4857   -1.0360   -3.7525 N.am      4 UNK        -0.4209 
     25 C          24.2236   -0.6217   -2.5036 C.2       3 UNK         0.4942 
     26 O          23.8553    0.5223   -2.2315 O.2       3 UNK        -0.5208 
     27 CA         24.4208   -1.6519   -1.3709 C.3       3 UNK         0.0250 
     28 CB         23.5640   -1.3414   -0.1248 C.3       3 UNK        -0.1990 
     29 N          24.2409   -3.0475   -1.7948 N.am      3 UNK        -0.4232 
     30 C          23.1337   -3.6225   -2.2870 C.2       2 UNK         0.4993 
     31 O          22.0680   -3.0285   -2.4595 O.2       2 UNK        -0.5286 
     32 CA         23.2634   -5.1072   -2.6840 C.3       2 UNK         0.0209 
     33 CB         21.9276   -5.7149   -3.1528 C.3       2 UNK        -0.1931 
     34 N          24.2639   -5.3078   -3.7368 N.am      2 UNK        -0.4546 
     35 C          25.5935   -5.2796   -3.5821 C.2       1 UNK         0.5154 
     36 O          26.1264   -5.0881   -2.4864 O.2       1 UNK        -0.5181 
     37 C          28.6250    1.4902   -5.7625 C.2       5 UNK         0.5014 
     38 O          28.3970    0.8202   -6.7740 O.2       5 UNK        -0.5248 
     39 N          29.3303    2.6307   -5.7827 N.am      6 UNK        -0.4434 
     40 CA         30.0321    3.1950   -6.9439 C.3       6 UNK         0.0363 
     41 CB         30.8475    4.4153   -6.4848 C.3       6 UNK        -0.1936 
     42 C          29.1472    3.5527   -8.1549 C.2       6 UNK         0.5081 
     43 O          29.6826    3.8233   -9.2300 O.2       6 UNK        -0.5248 
     44 N          27.8187    3.5384   -7.9811 N.am      7 UNK        -0.4718 
     45 CA         26.8411    3.6500   -9.0638 C.3       7 UNK         0.0273 
     46 CB         25.4608    3.9610   -8.4629 C.3       7 UNK        -0.1935 
     47 C          26.7702    2.3900   -9.9498 C.2       7 UNK         0.5018 
     48 O          26.2754    2.4911  -11.0736 O.2       7 UNK        -0.5186 
     49 N          27.2427    1.2402   -9.4443 N.am      8 UNK        -0.4240 
     50 CA         27.2308   -0.0428  -10.1502 C.3       8 UNK         0.0235 
     51 CB         26.1057   -0.9259   -9.5869 C.3       8 UNK        -0.2000 
     52 C          28.5787   -0.7730  -10.0681 C.2       8 UNK         0.4941 
     53 O          29.0103   -1.3377  -11.0746 O.2       8 UNK        -0.5273 
     54 N          29.2108   -0.7824   -8.8874 N.am      9 UNK        -0.4262 
     55 CA         30.4799   -1.4649   -8.6395 C.3       9 UNK         0.0264 
     56 CB         30.5988   -1.7756   -7.1388 C.3       9 UNK        -0.1955 
     57 C          31.6726   -0.6224   -9.1117 C.2       9 UNK         0.5031 
     58 O          31.6366    0.6080   -9.0314 O.2       9 UNK        -0.5390 
     59 N          32.7365   -1.3051   -9.5505 N.am      10 UNK        -0.4204 
     60 CA         34.0067   -0.7057   -9.9625 C.3       10 UNK         0.0237 
     61 CB         34.7031   -1.6472  -10.9638 C.3       10 UNK        -0.1985 
     62 C          34.8822   -0.3902   -8.7355 C.2       10 UNK         0.4970 
     63 O          35.9187   -1.0265   -8.5361 O.2       10 UNK        -0.4914 
     64 N          34.4278    0.5667   -7.9182 N.am      11 UNK        -0.4285 
     65 CA         35.0925    1.0044   -6.6787 C.3       11 UNK         0.1007 
     66 C          36.4376    1.7618   -6.8850 C.2       11 UNK         0.5703 
     67 N          36.7566    2.2425   -8.0813 N.am      11 UNK        -0.7361 
     68 O          37.2083    1.9106   -5.9396 O.2       11 UNK        -0.4986 
     69 C69        34.1421    1.8277   -5.7710 C.3       12 UNK        -0.0947 
     70 S70        32.5889    0.9627   -5.3718 S.3       12 UNK        -0.2240 
     71 C71        33.0165    0.1426   -3.8082 C.3       12 UNK         0.0194 
     72 H72        23.6744   -3.6892   -7.8795 H         1 UNK         0.0906 
     73 H73        25.4042   -3.4866   -8.1776 H         1 UNK         0.0906 
     74 H74        24.5403   -4.8434   -8.8961 H         1 UNK         0.0906 
     75 H75        26.5112   -3.9421   -6.2771 H         1 UNK         0.3140 
     76 H76        26.3840   -6.5428   -5.0776 H         1 UNK         0.1085 
     77 H77        28.3417   -5.7476   -3.7757 H         1 UNK         0.0836 
     78 H78        28.5361   -5.5396   -5.4856 H         1 UNK         0.0836 
     79 H79        29.0804   -3.9097   -2.1763 H         1 UNK         0.0731 
     80 H80        30.3687   -4.1633   -3.3345 H         1 UNK         0.0731 
     81 H81        31.8137   -2.3027   -4.0511 H         1 UNK         0.1312 
     82 H82        31.4077    1.4866   -2.0898 H         1 UNK         0.1406 
     83 H83        28.4968   -1.5933   -1.4226 H         1 UNK         0.1631 
     84 H84        29.5995    1.9193   -0.6013 H         1 UNK         0.0717 
     85 H85        28.8103    0.5501    0.1456 H         1 UNK         0.0717 
     86 H86        27.4116    2.9095   -3.5606 H         1 UNK         0.0934 
     87 H87        29.0584    2.5226   -3.1236 H         1 UNK         0.0934 
     88 H88        28.8131    0.2371   -4.1101 H         1 UNK         0.0739 
     89 H89        26.8481   -0.6822   -4.2435 H         1 UNK         0.3093 
     90 H90        23.5536    0.4407   -4.8945 H         1 UNK         0.0818 
     91 H91        23.5159   -1.6853   -6.1948 H         1 UNK         0.0819 
     92 H92        24.3284   -0.4150   -7.0940 H         1 UNK         0.0819 
     93 H93        25.2777   -1.6684   -6.3039 H         1 UNK         0.0819 
     94 H94        24.7495   -2.0001   -3.8889 H         1 UNK         0.3041 
     95 H95        25.4675   -1.5626   -1.0754 H         1 UNK         0.0784 
     96 H96        23.8055   -0.3586    0.2821 H         1 UNK         0.0793 
     97 H97        22.4983   -1.3441   -0.3558 H         1 UNK         0.0793 
     98 H98        23.7379   -2.0689    0.6680 H         1 UNK         0.0793 
     99 H99        25.0705   -3.6355   -1.7508 H         1 UNK         0.3024 
    100 H100       23.5810   -5.6508   -1.7909 H         1 UNK         0.1171 
    101 H101       21.1592   -5.6116   -2.3853 H         1 UNK         0.0786 
    102 H102       22.0294   -6.7793   -3.3654 H         1 UNK         0.0786 
    103 H103       21.5569   -5.2272   -4.0554 H         1 UNK         0.0786 
    104 H104       23.9177   -5.4870   -4.6752 H         1 UNK         0.2977 
    105 H105       29.4583    3.1274   -4.9140 H         1 UNK         0.3127 
    106 H106       30.7322    2.4341   -7.2930 H         1 UNK         0.0770 
    107 H107       30.2051    5.2075   -6.0988 H         1 UNK         0.0814 
    108 H108       31.4225    4.8351   -7.3115 H         1 UNK         0.0814 
    109 H109       31.5606    4.1460   -5.7052 H         1 UNK         0.0814 
    110 H110       27.4588    3.2965   -7.0680 H         1 UNK         0.2983 
    111 H111       27.1321    4.4848   -9.7055 H         1 UNK         0.0947 
    112 H112       24.7159    4.0993   -9.2477 H         1 UNK         0.0806 
    113 H113       25.4807    4.8765   -7.8715 H         1 UNK         0.0806 
    114 H114       25.1095    3.1527   -7.8203 H         1 UNK         0.0806 
    115 H115       27.6465    1.2478   -8.5117 H         1 UNK         0.3000 
    116 H116       27.0321    0.1191  -11.2119 H         1 UNK         0.0850 
    117 H117       26.0599   -1.8816  -10.1109 H         1 UNK         0.0810 
    118 H118       26.2605   -1.1369   -8.5290 H         1 UNK         0.0810 
    119 H119       25.1322   -0.4479   -9.6970 H         1 UNK         0.0810 
    120 H120       28.8381   -0.2458   -8.1056 H         1 UNK         0.3040 
    121 H121       30.4807   -2.4118   -9.1840 H         1 UNK         0.0766 
    122 H122       29.7943   -2.4321   -6.8103 H         1 UNK         0.0812 
    123 H123       30.5565   -0.8703   -6.5334 H         1 UNK         0.0812 
    124 H124       31.5402   -2.2761   -6.9092 H         1 UNK         0.0812 
    125 H125       32.7005   -2.3147   -9.5444 H         1 UNK         0.3205 
    126 H126       33.8097    0.2372  -10.4777 H         1 UNK         0.0754 
    127 H127       35.6498   -1.2245  -11.3030 H         1 UNK         0.0769 
    128 H128       34.0873   -1.8087  -11.8489 H         1 UNK         0.0769 
    129 H129       34.9196   -2.6217  -10.5239 H         1 UNK         0.0769 
    130 H130       33.5320    0.9922   -8.1284 H         1 UNK         0.2981 
    131 H131       35.3511    0.0974   -6.1290 H         1 UNK         0.0541 
    132 H132       36.1305    2.1291   -8.8618 H         1 UNK         0.3459 
    133 H133       37.6321    2.7271   -8.2012 H         1 UNK         0.3459 
    134 H134       33.8776    2.7663   -6.2614 H         1 UNK         0.0612 
    135 H135       34.6380    2.1057   -4.8392 H         1 UNK         0.0612 
    136 H136       33.7062   -0.6791   -4.0066 H         1 UNK         0.0624 
    137 H137       33.5404    0.8410   -3.1540 H         1 UNK         0.0624 
@<TRIPOS>BOND
     1    1    2 1    
     2    1   72 1    
     3    1   73 1    
     4    1   74 1    
     5    2    3 2    
     6    2    4 am   BACKBONE|DICT|INTERRES
     7    4    5 1    
     8    4   75 1    
     9    5    6 1    
    10    5   35 1    
    11    5   76 1    
    12    6    7 1    
    13    6   77 1    
    14    6   78 1    
    15    7    8 1    
    16    8    9 1    
    17    8   79 1    
    18    8   80 1    
    19    9   10 ar   
    20    9   14 ar   
    21   10   11 ar   
    22   10   81 1    
    23   11   12 ar   
    24   11   71 1    
    25   12   13 ar   
    26   12   82 1    
    27   13   14 ar   
    28   13   15 1    
    29   14   83 1    
    30   15   16 1    
    31   15   84 1    
    32   15   85 1    
    33   16   17 1    
    34   17   18 1    
    35   17   86 1    
    36   17   87 1    
    37   18   19 1    
    38   18   37 1    
    39   18   88 1    
    40   19   20 am   BACKBONE|DICT|INTERRES
    41   19   89 1    
    42   20   21 2    
    43   20   22 1    
    44   22   23 1    
    45   22   24 1    
    46   22   90 1    
    47   23   91 1    
    48   23   92 1    
    49   23   93 1    
    50   24   25 am   BACKBONE|DICT|INTERRES
    51   24   94 1    
    52   25   26 2    
    53   25   27 1    
    54   27   28 1    
    55   27   29 1    
    56   27   95 1    
    57   28   96 1    
    58   28   97 1    
    59   28   98 1    
    60   29   30 am   BACKBONE|DICT|INTERRES
    61   29   99 1    
    62   30   31 2    
    63   30   32 1    
    64   32   33 1    
    65   32   34 1    
    66   32  100 1    
    67   33  101 1    
    68   33  102 1    
    69   33  103 1    
    70   34   35 am   BACKBONE|DICT|INTERRES
    71   34  104 1    
    72   35   36 2    
    73   37   38 2    
    74   37   39 am   BACKBONE|DICT|INTERRES
    75   39   40 1    
    76   39  105 1    
    77   40   41 1    
    78   40   42 1    
    79   40  106 1    
    80   41  107 1    
    81   41  108 1    
    82   41  109 1    
    83   42   43 2    
    84   42   44 am   BACKBONE|DICT|INTERRES
    85   44   45 1    
    86   44  110 1    
    87   45   46 1    
    88   45   47 1    
    89   45  111 1    
    90   46  112 1    
    91   46  113 1    
    92   46  114 1    
    93   47   48 2    
    94   47   49 am   BACKBONE|DICT|INTERRES
    95   49   50 1    
    96   49  115 1    
    97   50   51 1    
    98   50   52 1    
    99   50  116 1    
   100   51  117 1    
   101   51  118 1    
   102   51  119 1    
   103   52   53 2    
   104   52   54 am   BACKBONE|DICT|INTERRES
   105   54   55 1    
   106   54  120 1    
   107   55   56 1    
   108   55   57 1    
   109   55  121 1    
   110   56  122 1    
   111   56  123 1    
   112   56  124 1    
   113   57   58 2    
   114   57   59 am   BACKBONE|DICT|INTERRES
   115   59   60 1    
   116   59  125 1    
   117   60   61 1    
   118   60   62 1    
   119   60  126 1    
   120   61  127 1    
   121   61  128 1    
   122   61  129 1    
   123   62   63 2    
   124   62   64 am   BACKBONE|DICT|INTERRES
   125   64   65 1    
   126   64  130 1    
   127   65   66 1    
   128   65   69 1    
   129   65  131 1    
   130   66   67 am   BACKBONE|DICT|INTERRES
   131   66   68 2    
   132   67  132 1    
   133   67  133 1    
   134   69   70 1    
   135   69  134 1    
   136   69  135 1    
   137   70   71 1    
   138   71  136 1    
   139   71  137 1    
@<TRIPOS>SUBSTRUCTURE
     1 UNK         1 GROUP             0       ****    0 ROOT    
