@<TRIPOS>MOLECULE
3R137
137   139    1
SMALL
USER_CHARGES


@<TRIPOS>ATOM
      1 CA         28.6824   -3.6443   -4.8372 C.3       0 UNK        -0.2020 
      2 C          27.9032   -4.2171   -3.6646 C.2       0 UNK         0.4855 
      3 O          26.8646   -4.8459   -3.8679 O.2       0 UNK        -0.5197 
      4 N          28.3952   -4.0124   -2.4373 N.am      1 UNK        -0.4892 
      5 CA         27.8383   -4.5532   -1.1903 C.3       1 UNK         0.0835 
      6 C6         28.9089   -4.6836   -0.0711 C.3       12 UNK        -0.0855 
      7 S7         30.4503   -5.5064   -0.6007 S.3       12 UNK        -0.2931 
      8 C8         31.6613   -4.1590   -0.3951 C.3       12 UNK         0.0378 
      9 C9         31.5878   -3.1377   -1.5231 C.ar      12 UNK        -0.0802 
     10 C10        32.3708   -3.3133   -2.6675 C.ar      12 UNK        -0.0944 
     11 C11        32.3552   -2.3623   -3.6903 C.ar      12 UNK        -0.0787 
     12 C12        31.5409   -1.2331   -3.5691 C.ar      12 UNK        -0.0862 
     13 C13        30.7186   -1.0642   -2.4498 C.ar      12 UNK        -0.0733 
     14 C14        30.7643   -2.0097   -1.4195 C.ar      12 UNK        -0.0832 
     15 C15        29.7927    0.1437   -2.3459 C.3       12 UNK         0.0240 
     16 S16        28.2448   -0.0860   -3.2886 S.3       12 UNK        -0.2522 
     17 C17        28.8642    0.1140   -4.9930 C.3       12 UNK        -0.0967 
     18 CA         27.8050    0.4746   -6.0604 C.3       5 UNK         0.0660 
     19 N          26.6568   -0.4359   -6.0606 N.am      5 UNK        -0.4015 
     20 C          25.8485   -0.6286   -7.1105 C.2       4 UNK         0.4946 
     21 O          25.9665   -0.0272   -8.1786 O.2       4 UNK        -0.5353 
     22 CA         24.6807   -1.6075   -6.9245 C.3       4 UNK         0.0277 
     23 CB         25.1491   -3.0557   -7.1369 C.3       4 UNK        -0.1981 
     24 N          23.9973   -1.4975   -5.6321 N.am      4 UNK        -0.4209 
     25 C          23.4545   -0.3876   -5.1164 C.2       3 UNK         0.4942 
     26 O          23.5801    0.7278   -5.6197 O.2       3 UNK        -0.5208 
     27 CA         22.6257   -0.5352   -3.8278 C.3       3 UNK         0.0250 
     28 CB         21.2634   -1.1937   -4.1222 C.3       3 UNK        -0.1990 
     29 N          23.3098   -1.2018   -2.7101 N.am      3 UNK        -0.4232 
     30 C          23.7664   -2.4594   -2.6303 C.2       2 UNK         0.4993 
     31 O          23.7107   -3.2845   -3.5455 O.2       2 UNK        -0.5286 
     32 CA         24.3673   -2.8748   -1.2872 C.3       2 UNK         0.0209 
     33 CB         23.3561   -3.6870   -0.4583 C.3       2 UNK        -0.1931 
     34 N          25.5669   -3.6683   -1.5343 N.am      2 UNK        -0.4546 
     35 C          26.6207   -3.7271   -0.7153 C.2       1 UNK         0.5154 
     36 O          26.6581   -3.1379    0.3677 O.2       1 UNK        -0.5181 
     37 C          27.4360    1.9745   -6.0806 C.2       5 UNK         0.5014 
     38 O          28.3271    2.7940   -6.3036 O.2       5 UNK        -0.5248 
     39 N          26.1494    2.3315   -5.9314 N.am      6 UNK        -0.4434 
     40 CA         25.6663    3.6882   -6.2116 C.3       6 UNK         0.0363 
     41 CB         24.2748    3.8916   -5.5921 C.3       6 UNK        -0.1936 
     42 C          25.6350    3.9951   -7.7222 C.2       6 UNK         0.5081 
     43 O          25.7439    5.1632   -8.0958 O.2       6 UNK        -0.5248 
     44 N          25.4946    2.9548   -8.5574 N.am      7 UNK        -0.4718 
     45 CA         25.5011    3.0472  -10.0179 C.3       7 UNK         0.0273 
     46 CB         24.3408    2.2108  -10.5828 C.3       7 UNK        -0.1935 
     47 C          26.8398    2.5720  -10.6012 C.2       7 UNK         0.5018 
     48 O          27.3797    3.2332  -11.4883 O.2       7 UNK        -0.5186 
     49 N          27.3516    1.4380  -10.1012 N.am      8 UNK        -0.4240 
     50 CA         28.5738    0.7869  -10.5836 C.3       8 UNK         0.0235 
     51 CB         28.5461   -0.6957  -10.1710 C.3       8 UNK        -0.2000 
     52 C          29.8789    1.4488  -10.1060 C.2       8 UNK         0.4941 
     53 O          30.9367    1.1070  -10.6366 O.2       8 UNK        -0.5273 
     54 N          29.7956    2.3531   -9.1177 N.am      9 UNK        -0.4262 
     55 CA         30.9131    2.9964   -8.4166 C.3       9 UNK         0.0264 
     56 CB         31.7288    3.9014   -9.3693 C.3       9 UNK        -0.1955 
     57 C          31.7530    1.9593   -7.6441 C.2       9 UNK         0.5031 
     58 O          31.1883    1.0024   -7.1093 O.2       9 UNK        -0.5390 
     59 N          33.0789    2.1406   -7.5918 N.am      10 UNK        -0.4204 
     60 CA         34.0359    1.2827   -6.8808 C.3       10 UNK         0.0237 
     61 CB         35.3298    2.0828   -6.6361 C.3       10 UNK        -0.1985 
     62 C          34.2993   -0.0772   -7.5698 C.2       10 UNK         0.4970 
     63 O          35.4505   -0.5121   -7.6396 O.2       10 UNK        -0.4914 
     64 N          33.2282   -0.7322   -8.0335 N.am      11 UNK        -0.4285 
     65 CA         33.1969   -2.0550   -8.6763 C.3       11 UNK         0.1007 
     66 C          34.0508   -2.1396   -9.9810 C.2       11 UNK         0.5703 
     67 N          34.4173   -3.3322  -10.4339 N.am      11 UNK        -0.7361 
     68 O          34.3402   -1.1350  -10.6292 O.2       11 UNK        -0.4986 
     69 C69        33.4634   -3.2044   -7.6572 C.3       12 UNK        -0.0947 
     70 S70        32.2401   -3.2313   -6.3025 S.3       12 UNK        -0.2240 
     71 C71        33.2163   -2.5506   -4.9280 C.3       12 UNK         0.0194 
     72 H72        28.0729   -2.9261   -5.3824 H         1 UNK         0.0906 
     73 H73        29.5927   -3.1441   -4.5106 H         1 UNK         0.0906 
     74 H74        28.9667   -4.4407   -5.5243 H         1 UNK         0.0906 
     75 H75        29.2551   -3.4902   -2.3312 H         1 UNK         0.3140 
     76 H76        27.4695   -5.5606   -1.3970 H         1 UNK         0.1085 
     77 H77        28.4995   -5.2602    0.7607 H         1 UNK         0.0836 
     78 H78        29.1544   -3.7088    0.3505 H         1 UNK         0.0836 
     79 H79        32.6608   -4.5958   -0.3631 H         1 UNK         0.0731 
     80 H80        31.5206   -3.6734    0.5719 H         1 UNK         0.0731 
     81 H81        33.0017   -4.1874   -2.7570 H         1 UNK         0.1312 
     82 H82        31.5359   -0.4979   -4.3620 H         1 UNK         0.1406 
     83 H83        30.1570   -1.8628   -0.5369 H         1 UNK         0.1631 
     84 H84        30.3077    1.0418   -2.6903 H         1 UNK         0.0717 
     85 H85        29.5355    0.3287   -1.3020 H         1 UNK         0.0717 
     86 H86        29.6615    0.8591   -4.9937 H         1 UNK         0.0934 
     87 H87        29.3459   -0.8184   -5.2865 H         1 UNK         0.0934 
     88 H88        28.3087    0.3236   -7.0176 H         1 UNK         0.0739 
     89 H89        26.4681   -0.9213   -5.1957 H         1 UNK         0.3093 
     90 H90        23.9442   -1.3732   -7.6958 H         1 UNK         0.0818 
     91 H91        24.3037   -3.7434   -7.1641 H         1 UNK         0.0819 
     92 H92        25.6820   -3.1623   -8.0831 H         1 UNK         0.0819 
     93 H93        25.8192   -3.3865   -6.3427 H         1 UNK         0.0819 
     94 H94        23.8747   -2.3545   -5.0938 H         1 UNK         0.3041 
     95 H95        22.4219    0.4789   -3.4794 H         1 UNK         0.0784 
     96 H96        20.7282   -0.6497   -4.9018 H         1 UNK         0.0793 
     97 H97        21.3698   -2.2244   -4.4620 H         1 UNK         0.0793 
     98 H98        20.6273   -1.1985   -3.2371 H         1 UNK         0.0793 
     99 H99        23.4344   -0.6144   -1.8966 H         1 UNK         0.3024 
    100 H100       24.6403   -1.9729   -0.7336 H         1 UNK         0.1171 
    101 H101       23.7654   -3.9563    0.5156 H         1 UNK         0.0786 
    102 H102       22.4459   -3.1130   -0.2793 H         1 UNK         0.0786 
    103 H103       23.0678   -4.6079   -0.9668 H         1 UNK         0.0786 
    104 H104       25.6249   -4.1192   -2.4453 H         1 UNK         0.2977 
    105 H105       25.4406    1.6238   -5.7656 H         1 UNK         0.3127 
    106 H106       26.3482    4.4002   -5.7412 H         1 UNK         0.0770 
    107 H107       23.5166    3.2877   -6.0912 H         1 UNK         0.0814 
    108 H108       23.9630    4.9332   -5.6783 H         1 UNK         0.0814 
    109 H109       24.2667    3.6363   -4.5324 H         1 UNK         0.0814 
    110 H110       25.4343    2.0213   -8.1670 H         1 UNK         0.2983 
    111 H111       25.3518    4.0825  -10.3331 H         1 UNK         0.0947 
    112 H112       24.3224    2.2542  -11.6727 H         1 UNK         0.0806 
    113 H113       23.3789    2.5813  -10.2281 H         1 UNK         0.0806 
    114 H114       24.4188    1.1604  -10.2985 H         1 UNK         0.0806 
    115 H115       26.8227    0.9311   -9.3915 H         1 UNK         0.3000 
    116 H116       28.5739    0.8322  -11.6749 H         1 UNK         0.0850 
    117 H117       29.4026   -1.2320  -10.5818 H         1 UNK         0.0810 
    118 H118       27.6475   -1.1935  -10.5361 H         1 UNK         0.0810 
    119 H119       28.5784   -0.8159   -9.0882 H         1 UNK         0.0810 
    120 H120       28.8849    2.5274   -8.7166 H         1 UNK         0.3040 
    121 H121       30.4643    3.6412   -7.6603 H         1 UNK         0.0766 
    122 H122       31.0733    4.5702   -9.9274 H         1 UNK         0.0812 
    123 H123       32.3037    3.3249  -10.0952 H         1 UNK         0.0812 
    124 H124       32.4258    4.5336   -8.8182 H         1 UNK         0.0812 
    125 H125       33.4692    2.9237   -8.0957 H         1 UNK         0.3205 
    126 H126       33.6092    1.0492   -5.9029 H         1 UNK         0.0754 
    127 H127       36.0365    1.5132   -6.0309 H         1 UNK         0.0769 
    128 H128       35.1284    3.0109   -6.1005 H         1 UNK         0.0769 
    129 H129       35.8299    2.3353   -7.5720 H         1 UNK         0.0769 
    130 H130       32.3260   -0.2857   -7.8969 H         1 UNK         0.2981 
    131 H131       32.1703   -2.1657   -9.0272 H         1 UNK         0.0541 
    132 H132       34.1754   -4.1759   -9.9392 H         1 UNK         0.3459 
    133 H133       34.9497   -3.3870  -11.2881 H         1 UNK         0.3459 
    134 H134       33.3962   -4.1782   -8.1431 H         1 UNK         0.0612 
    135 H135       34.4735   -3.1367   -7.2501 H         1 UNK         0.0612 
    136 H136       33.6482   -1.5934   -5.2177 H         1 UNK         0.0624 
    137 H137       34.0536   -3.2172   -4.7158 H         1 UNK         0.0624 
@<TRIPOS>BOND
     1    1    2 1    
     2    1   72 1    
     3    1   73 1    
     4    1   74 1    
     5    2    3 2    
     6    2    4 am   BACKBONE|DICT|INTERRES
     7    4    5 1    
     8    4   75 1    
     9    5    6 1    
    10    5   35 1    
    11    5   76 1    
    12    6    7 1    
    13    6   77 1    
    14    6   78 1    
    15    7    8 1    
    16    8    9 1    
    17    8   79 1    
    18    8   80 1    
    19    9   10 ar   
    20    9   14 ar   
    21   10   11 ar   
    22   10   81 1    
    23   11   12 ar   
    24   11   71 1    
    25   12   13 ar   
    26   12   82 1    
    27   13   14 ar   
    28   13   15 1    
    29   14   83 1    
    30   15   16 1    
    31   15   84 1    
    32   15   85 1    
    33   16   17 1    
    34   17   18 1    
    35   17   86 1    
    36   17   87 1    
    37   18   19 1    
    38   18   37 1    
    39   18   88 1    
    40   19   20 am   BACKBONE|DICT|INTERRES
    41   19   89 1    
    42   20   21 2    
    43   20   22 1    
    44   22   23 1    
    45   22   24 1    
    46   22   90 1    
    47   23   91 1    
    48   23   92 1    
    49   23   93 1    
    50   24   25 am   BACKBONE|DICT|INTERRES
    51   24   94 1    
    52   25   26 2    
    53   25   27 1    
    54   27   28 1    
    55   27   29 1    
    56   27   95 1    
    57   28   96 1    
    58   28   97 1    
    59   28   98 1    
    60   29   30 am   BACKBONE|DICT|INTERRES
    61   29   99 1    
    62   30   31 2    
    63   30   32 1    
    64   32   33 1    
    65   32   34 1    
    66   32  100 1    
    67   33  101 1    
    68   33  102 1    
    69   33  103 1    
    70   34   35 am   BACKBONE|DICT|INTERRES
    71   34  104 1    
    72   35   36 2    
    73   37   38 2    
    74   37   39 am   BACKBONE|DICT|INTERRES
    75   39   40 1    
    76   39  105 1    
    77   40   41 1    
    78   40   42 1    
    79   40  106 1    
    80   41  107 1    
    81   41  108 1    
    82   41  109 1    
    83   42   43 2    
    84   42   44 am   BACKBONE|DICT|INTERRES
    85   44   45 1    
    86   44  110 1    
    87   45   46 1    
    88   45   47 1    
    89   45  111 1    
    90   46  112 1    
    91   46  113 1    
    92   46  114 1    
    93   47   48 2    
    94   47   49 am   BACKBONE|DICT|INTERRES
    95   49   50 1    
    96   49  115 1    
    97   50   51 1    
    98   50   52 1    
    99   50  116 1    
   100   51  117 1    
   101   51  118 1    
   102   51  119 1    
   103   52   53 2    
   104   52   54 am   BACKBONE|DICT|INTERRES
   105   54   55 1    
   106   54  120 1    
   107   55   56 1    
   108   55   57 1    
   109   55  121 1    
   110   56  122 1    
   111   56  123 1    
   112   56  124 1    
   113   57   58 2    
   114   57   59 am   BACKBONE|DICT|INTERRES
   115   59   60 1    
   116   59  125 1    
   117   60   61 1    
   118   60   62 1    
   119   60  126 1    
   120   61  127 1    
   121   61  128 1    
   122   61  129 1    
   123   62   63 2    
   124   62   64 am   BACKBONE|DICT|INTERRES
   125   64   65 1    
   126   64  130 1    
   127   65   66 1    
   128   65   69 1    
   129   65  131 1    
   130   66   67 am   BACKBONE|DICT|INTERRES
   131   66   68 2    
   132   67  132 1    
   133   67  133 1    
   134   69   70 1    
   135   69  134 1    
   136   69  135 1    
   137   70   71 1    
   138   71  136 1    
   139   71  137 1    
@<TRIPOS>SUBSTRUCTURE
     1 UNK         1 GROUP             0       ****    0 ROOT    
