@<TRIPOS>MOLECULE
3R137
137   139    1
SMALL
USER_CHARGES


@<TRIPOS>ATOM
      1 CA         25.3504   -7.1762   -1.2254 C.3       0 UNK        -0.2020 
      2 C          25.9908   -5.8033   -1.3611 C.2       0 UNK         0.4855 
      3 O          25.9648   -5.2251   -2.4473 O.2       0 UNK        -0.5197 
      4 N          26.5411   -5.2710   -0.2600 N.am      1 UNK        -0.4892 
      5 CA         27.2747   -3.9972   -0.1189 C.3       1 UNK         0.0835 
      6 C6         28.5311   -3.8887   -1.0204 C.3       12 UNK        -0.0855 
      7 S7         29.6940   -5.2833   -0.8022 S.3       12 UNK        -0.2931 
      8 C8         31.2985   -4.5157   -1.2205 C.3       12 UNK         0.0378 
      9 C9         31.2481   -3.6827   -2.4972 C.ar      12 UNK        -0.0802 
     10 C10        31.7229   -2.3673   -2.4914 C.ar      12 UNK        -0.0944 
     11 C11        31.6313   -1.5682   -3.6353 C.ar      12 UNK        -0.0787 
     12 C12        31.0448   -2.0993   -4.7903 C.ar      12 UNK        -0.0862 
     13 C13        30.5831   -3.4193   -4.8166 C.ar      12 UNK        -0.0733 
     14 C14        30.7065   -4.2113   -3.6732 C.ar      12 UNK        -0.0832 
     15 C15        29.9645   -3.9927   -6.0855 C.3       12 UNK         0.0240 
     16 S16        28.2416   -4.5617   -5.8737 S.3       12 UNK        -0.2522 
     17 C17        27.3658   -3.0908   -5.2394 C.3       12 UNK        -0.0967 
     18 CA         26.9288   -2.1033   -6.3563 C.3       5 UNK         0.0660 
     19 N          25.6435   -1.4608   -6.0640 N.am      5 UNK        -0.4015 
     20 C          24.9360   -0.7377   -6.9480 C.2       4 UNK         0.4946 
     21 O          25.2609   -0.5855   -8.1249 O.2       4 UNK        -0.5353 
     22 CA         23.6789   -0.0179   -6.4275 C.3       4 UNK         0.0277 
     23 CB         22.4613   -0.9545   -6.4754 C.3       4 UNK        -0.1981 
     24 N          23.8414    0.5074   -5.0707 N.am      4 UNK        -0.4209 
     25 C          24.7443    1.4326   -4.7137 C.2       3 UNK         0.4942 
     26 O          25.4666    2.0225   -5.5157 O.2       3 UNK        -0.5208 
     27 CA         24.9124    1.7085   -3.2078 C.3       3 UNK         0.0250 
     28 CB         24.1122    2.9550   -2.7989 C.3       3 UNK        -0.1990 
     29 N          24.5363    0.5804   -2.3456 N.am      3 UNK        -0.4232 
     30 C          25.0985   -0.6367   -2.3769 C.2       2 UNK         0.4993 
     31 O          26.0021   -0.9551   -3.1559 O.2       2 UNK        -0.5286 
     32 CA         24.4704   -1.6885   -1.4511 C.3       2 UNK         0.0209 
     33 CB         23.2149   -2.2880   -2.1076 C.3       2 UNK        -0.1931 
     34 N          25.4013   -2.7757   -1.1603 N.am      2 UNK        -0.4546 
     35 C          26.3909   -2.7364   -0.2627 C.2       1 UNK         0.5154 
     36 O          26.6053   -1.7644    0.4638 O.2       1 UNK        -0.5181 
     37 C          28.0084   -1.0373   -6.6054 C.2       5 UNK         0.5014 
     38 O          28.7283   -1.1145   -7.6020 O.2       5 UNK        -0.5248 
     39 N          28.0698   -0.0422   -5.7070 N.am      6 UNK        -0.4434 
     40 CA         28.9902    1.0923   -5.7779 C.3       6 UNK         0.0363 
     41 CB         28.8372    1.9703   -4.5263 C.3       6 UNK        -0.1936 
     42 C          28.8356    1.9149   -7.0648 C.2       6 UNK         0.5081 
     43 O          29.8465    2.2700   -7.6729 O.2       6 UNK        -0.5248 
     44 N          27.5844    2.1611   -7.4722 N.am      7 UNK        -0.4718 
     45 CA         27.2331    2.8056   -8.7355 C.3       7 UNK         0.0273 
     46 CB         25.7330    3.1417   -8.7419 C.3       7 UNK        -0.1935 
     47 C          27.6115    1.9547   -9.9588 C.2       7 UNK         0.5018 
     48 O          28.2578    2.4736  -10.8693 O.2       7 UNK        -0.5186 
     49 N          27.2172    0.6716   -9.9585 N.am      8 UNK        -0.4240 
     50 CA         27.4421   -0.2656  -11.0645 C.3       8 UNK         0.0235 
     51 CB         26.6792   -1.5747  -10.8059 C.3       8 UNK        -0.2000 
     52 C          28.9252   -0.5580  -11.3385 C.2       8 UNK         0.4941 
     53 O          29.3292   -0.5814  -12.5018 O.2       8 UNK        -0.5273 
     54 N          29.7087   -0.7700  -10.2731 N.am      9 UNK        -0.4262 
     55 CA         31.1418   -1.0630  -10.3583 C.3       9 UNK         0.0264 
     56 CB         31.5669   -1.8328   -9.0966 C.3       9 UNK        -0.1955 
     57 C          32.0216    0.1866  -10.5420 C.2       9 UNK         0.5031 
     58 O          33.2168    0.0287  -10.7956 O.2       9 UNK        -0.5390 
     59 N          31.4460    1.3883  -10.3660 N.am      10 UNK        -0.4204 
     60 CA         32.1306    2.6866  -10.2522 C.3       10 UNK         0.0237 
     61 CB         32.7939    3.0933  -11.5853 C.3       10 UNK        -0.1985 
     62 C          33.1002    2.7244   -9.0501 C.2       10 UNK         0.4970 
     63 O          34.1731    3.3261   -9.1237 O.2       10 UNK        -0.4914 
     64 N          32.6875    2.0539   -7.9711 N.am      11 UNK        -0.4285 
     65 CA         33.3866    1.9224   -6.6897 C.3       11 UNK         0.1007 
     66 C          32.9746    3.0451   -5.6910 C.2       11 UNK         0.5703 
     67 N          31.8203    3.6833   -5.8550 N.am      11 UNK        -0.7361 
     68 O          33.7318    3.3765   -4.7823 O.2       11 UNK        -0.4986 
     69 C69        33.1760    0.4719   -6.1636 C.3       12 UNK        -0.0947 
     70 S70        33.7266    0.0888   -4.4635 S.3       12 UNK        -0.2240 
     71 C71        32.1376   -0.1282   -3.5938 C.3       12 UNK         0.0194 
     72 H72        25.8274   -7.8792   -1.9077 H         1 UNK         0.0906 
     73 H73        25.4402   -7.5719   -0.2140 H         1 UNK         0.0906 
     74 H74        24.2915   -7.1225   -1.4768 H         1 UNK         0.0906 
     75 H75        26.4857   -5.8040    0.5973 H         1 UNK         0.3140 
     76 H76        27.6250   -3.9878    0.9148 H         1 UNK         0.1085 
     77 H77        28.2473   -3.8378   -2.0734 H         1 UNK         0.0836 
     78 H78        29.0620   -2.9589   -0.8054 H         1 UNK         0.0836 
     79 H79        31.6165   -3.9043   -0.3744 H         1 UNK         0.0731 
     80 H80        32.0487   -5.2990   -1.3350 H         1 UNK         0.0731 
     81 H81        32.1530   -1.9578   -1.5875 H         1 UNK         0.1312 
     82 H82        30.9453   -1.4938   -5.6769 H         1 UNK         0.1406 
     83 H83        30.3421   -5.2298   -3.6869 H         1 UNK         0.1631 
     84 H84        29.9996   -3.2685   -6.8975 H         1 UNK         0.0717 
     85 H85        30.5689   -4.8384   -6.4158 H         1 UNK         0.0717 
     86 H86        26.4843   -3.4776   -4.7247 H         1 UNK         0.0934 
     87 H87        27.9511   -2.6085   -4.4535 H         1 UNK         0.0934 
     88 H88        26.7940   -2.6605   -7.2861 H         1 UNK         0.0739 
     89 H89        25.3613   -1.4615   -5.0911 H         1 UNK         0.3093 
     90 H90        23.4870    0.8289   -7.0900 H         1 UNK         0.0818 
     91 H91        21.5470   -0.4320   -6.1932 H         1 UNK         0.0819 
     92 H92        22.3106   -1.3447   -7.4831 H         1 UNK         0.0819 
     93 H93        22.5797   -1.8101   -5.8091 H         1 UNK         0.0819 
     94 H94        23.2731    0.0923   -4.3477 H         1 UNK         0.3041 
     95 H95        25.9709    1.9101   -3.0335 H         1 UNK         0.0784 
     96 H96        24.3926    3.8153   -3.4087 H         1 UNK         0.0793 
     97 H97        23.0387    2.8053   -2.9211 H         1 UNK         0.0793 
     98 H98        24.2990    3.2243   -1.7592 H         1 UNK         0.0793 
     99 H99        23.7877    0.7517   -1.6890 H         1 UNK         0.3024 
    100 H100       24.1889   -1.2075   -0.5114 H         1 UNK         0.1171 
    101 H101       22.7472   -3.0300   -1.4599 H         1 UNK         0.0786 
    102 H102       22.4658   -1.5208   -2.3078 H         1 UNK         0.0786 
    103 H103       23.4484   -2.7746   -3.0559 H         1 UNK         0.0786 
    104 H104       25.3665   -3.5951   -1.7618 H         1 UNK         0.2977 
    105 H105       27.4294   -0.0642   -4.9240 H         1 UNK         0.3127 
    106 H106       29.9963    0.6814   -5.7847 H         1 UNK         0.0770 
    107 H107       27.8665    2.4637   -4.4920 H         1 UNK         0.0814 
    108 H108       29.5943    2.7536   -4.5038 H         1 UNK         0.0814 
    109 H109       28.9506    1.3867   -3.6125 H         1 UNK         0.0814 
    110 H110       26.8150    1.8935   -6.8627 H         1 UNK         0.2983 
    111 H111       27.7918    3.7421   -8.7983 H         1 UNK         0.0947 
    112 H112       25.4470    3.6381   -9.6702 H         1 UNK         0.0806 
    113 H113       25.4752    3.8122   -7.9218 H         1 UNK         0.0806 
    114 H114       25.1167    2.2471   -8.6447 H         1 UNK         0.0806 
    115 H115       26.6742    0.3209   -9.1735 H         1 UNK         0.3000 
    116 H116       27.0293    0.1911  -11.9666 H         1 UNK         0.0850 
    117 H117       26.8366   -2.2883  -11.6159 H         1 UNK         0.0810 
    118 H118       25.6057   -1.3994  -10.7344 H         1 UNK         0.0810 
    119 H119       27.0022   -2.0526   -9.8800 H         1 UNK         0.0810 
    120 H120       29.2920   -0.7761   -9.3422 H         1 UNK         0.3040 
    121 H121       31.3187   -1.7099  -11.2203 H         1 UNK         0.0766 
    122 H122       31.0139   -2.7670   -9.0033 H         1 UNK         0.0812 
    123 H123       31.3983   -1.2482   -8.1921 H         1 UNK         0.0812 
    124 H124       32.6271   -2.0880   -9.1272 H         1 UNK         0.0812 
    125 H125       30.4519    1.4060  -10.1759 H         1 UNK         0.3205 
    126 H126       31.3515    3.4191  -10.0348 H         1 UNK         0.0754 
    127 H127       33.1762    4.1135  -11.5349 H         1 UNK         0.0769 
    128 H128       32.0812    3.0552  -12.4091 H         1 UNK         0.0769 
    129 H129       33.6337    2.4452  -11.8372 H         1 UNK         0.0769 
    130 H130       31.7342    1.7096   -7.9856 H         1 UNK         0.2981 
    131 H131       34.4567    2.0506   -6.8626 H         1 UNK         0.0541 
    132 H132       31.1897    3.4200   -6.6014 H         1 UNK         0.3459 
    133 H133       31.5775    4.4297   -5.2239 H         1 UNK         0.3459 
    134 H134       32.1239    0.2173   -6.2500 H         1 UNK         0.0612 
    135 H135       33.6897   -0.2232   -6.8294 H         1 UNK         0.0612 
    136 H136       31.3908    0.5521   -3.9988 H         1 UNK         0.0624 
    137 H137       32.2810    0.1842   -2.5584 H         1 UNK         0.0624 
@<TRIPOS>BOND
     1    1    2 1    
     2    1   72 1    
     3    1   73 1    
     4    1   74 1    
     5    2    3 2    
     6    2    4 am   BACKBONE|DICT|INTERRES
     7    4    5 1    
     8    4   75 1    
     9    5    6 1    
    10    5   35 1    
    11    5   76 1    
    12    6    7 1    
    13    6   77 1    
    14    6   78 1    
    15    7    8 1    
    16    8    9 1    
    17    8   79 1    
    18    8   80 1    
    19    9   10 ar   
    20    9   14 ar   
    21   10   11 ar   
    22   10   81 1    
    23   11   12 ar   
    24   11   71 1    
    25   12   13 ar   
    26   12   82 1    
    27   13   14 ar   
    28   13   15 1    
    29   14   83 1    
    30   15   16 1    
    31   15   84 1    
    32   15   85 1    
    33   16   17 1    
    34   17   18 1    
    35   17   86 1    
    36   17   87 1    
    37   18   19 1    
    38   18   37 1    
    39   18   88 1    
    40   19   20 am   BACKBONE|DICT|INTERRES
    41   19   89 1    
    42   20   21 2    
    43   20   22 1    
    44   22   23 1    
    45   22   24 1    
    46   22   90 1    
    47   23   91 1    
    48   23   92 1    
    49   23   93 1    
    50   24   25 am   BACKBONE|DICT|INTERRES
    51   24   94 1    
    52   25   26 2    
    53   25   27 1    
    54   27   28 1    
    55   27   29 1    
    56   27   95 1    
    57   28   96 1    
    58   28   97 1    
    59   28   98 1    
    60   29   30 am   BACKBONE|DICT|INTERRES
    61   29   99 1    
    62   30   31 2    
    63   30   32 1    
    64   32   33 1    
    65   32   34 1    
    66   32  100 1    
    67   33  101 1    
    68   33  102 1    
    69   33  103 1    
    70   34   35 am   BACKBONE|DICT|INTERRES
    71   34  104 1    
    72   35   36 2    
    73   37   38 2    
    74   37   39 am   BACKBONE|DICT|INTERRES
    75   39   40 1    
    76   39  105 1    
    77   40   41 1    
    78   40   42 1    
    79   40  106 1    
    80   41  107 1    
    81   41  108 1    
    82   41  109 1    
    83   42   43 2    
    84   42   44 am   BACKBONE|DICT|INTERRES
    85   44   45 1    
    86   44  110 1    
    87   45   46 1    
    88   45   47 1    
    89   45  111 1    
    90   46  112 1    
    91   46  113 1    
    92   46  114 1    
    93   47   48 2    
    94   47   49 am   BACKBONE|DICT|INTERRES
    95   49   50 1    
    96   49  115 1    
    97   50   51 1    
    98   50   52 1    
    99   50  116 1    
   100   51  117 1    
   101   51  118 1    
   102   51  119 1    
   103   52   53 2    
   104   52   54 am   BACKBONE|DICT|INTERRES
   105   54   55 1    
   106   54  120 1    
   107   55   56 1    
   108   55   57 1    
   109   55  121 1    
   110   56  122 1    
   111   56  123 1    
   112   56  124 1    
   113   57   58 2    
   114   57   59 am   BACKBONE|DICT|INTERRES
   115   59   60 1    
   116   59  125 1    
   117   60   61 1    
   118   60   62 1    
   119   60  126 1    
   120   61  127 1    
   121   61  128 1    
   122   61  129 1    
   123   62   63 2    
   124   62   64 am   BACKBONE|DICT|INTERRES
   125   64   65 1    
   126   64  130 1    
   127   65   66 1    
   128   65   69 1    
   129   65  131 1    
   130   66   67 am   BACKBONE|DICT|INTERRES
   131   66   68 2    
   132   67  132 1    
   133   67  133 1    
   134   69   70 1    
   135   69  134 1    
   136   69  135 1    
   137   70   71 1    
   138   71  136 1    
   139   71  137 1    
@<TRIPOS>SUBSTRUCTURE
     1 UNK         1 GROUP             0       ****    0 ROOT    
