@<TRIPOS>MOLECULE
3R137
137   139    1
SMALL
USER_CHARGES


@<TRIPOS>ATOM
      1 CA         26.1887   -1.0612   -1.0552 C.3       0 UNK        -0.2020 
      2 C          26.7903   -2.0532   -2.0385 C.2       0 UNK         0.4855 
      3 O          26.8913   -1.7584   -3.2302 O.2       0 UNK        -0.5197 
      4 N          27.1828   -3.2374   -1.5524 N.am      1 UNK        -0.4892 
      5 CA         27.7256   -4.3300   -2.3643 C.3       1 UNK         0.0835 
      6 C6         28.2524   -5.5132   -1.5096 C.3       12 UNK        -0.0855 
      7 S7         29.3414   -5.0324   -0.1265 S.3       12 UNK        -0.2931 
      8 C8         30.9927   -4.9979   -0.9067 C.3       12 UNK         0.0378 
      9 C9         31.4010   -3.6341   -1.4640 C.ar      12 UNK        -0.0802 
     10 C10        32.2550   -3.5724   -2.5699 C.ar      12 UNK        -0.0944 
     11 C11        32.7109   -2.3419   -3.0549 C.ar      12 UNK        -0.0787 
     12 C12        32.3003   -1.1594   -2.4317 C.ar      12 UNK        -0.0862 
     13 C13        31.4549   -1.2048   -1.3204 C.ar      12 UNK        -0.0733 
     14 C14        31.0094   -2.4409   -0.8438 C.ar      12 UNK        -0.0832 
     15 C15        31.0557    0.0704   -0.5955 C.3       12 UNK         0.0240 
     16 S16        29.4912    0.7428   -1.2314 S.3       12 UNK        -0.2522 
     17 C17        30.0567    2.0033   -2.4255 C.3       12 UNK        -0.0967 
     18 CA         29.3825    1.8983   -3.8211 C.3       5 UNK         0.0660 
     19 N          27.9172    1.8166   -3.7102 N.am      5 UNK        -0.4015 
     20 C          27.0497    1.4208   -4.6515 C.2       4 UNK         0.4946 
     21 O          27.3444    1.1980   -5.8314 O.2       4 UNK        -0.5353 
     22 CA         25.5939    1.2507   -4.2103 C.3       4 UNK         0.0277 
     23 CB         24.7839    2.5382   -4.4383 C.3       4 UNK        -0.1981 
     24 N          25.0328    0.1531   -4.9894 N.am      4 UNK        -0.4209 
     25 C          24.0920   -0.7022   -4.5757 C.2       3 UNK         0.4942 
     26 O          23.4932   -0.6083   -3.5038 O.2       3 UNK        -0.5208 
     27 CA         23.7839   -1.8750   -5.5119 C.3       3 UNK         0.0250 
     28 CB         23.5798   -1.4152   -6.9723 C.3       3 UNK        -0.1990 
     29 N          24.8432   -2.8824   -5.4071 N.am      3 UNK        -0.4232 
     30 C          24.7521   -4.1327   -5.8865 C.2       2 UNK         0.4993 
     31 O          23.7541   -4.5657   -6.4645 O.2       2 UNK        -0.5286 
     32 CA         25.9560   -5.0798   -5.7097 C.3       2 UNK         0.0209 
     33 CB         26.7151   -5.2595   -7.0350 C.3       2 UNK        -0.1931 
     34 N          26.8950   -4.6739   -4.6597 N.am      2 UNK        -0.4546 
     35 C          26.6490   -4.8271   -3.3524 C.2       1 UNK         0.5154 
     36 O          25.6114   -5.3272   -2.9103 O.2       1 UNK        -0.5181 
     37 C          29.8541    3.0376   -4.7581 C.2       5 UNK         0.5014 
     38 O          30.5984    3.9264   -4.3378 O.2       5 UNK        -0.5248 
     39 N          29.3965    3.0005   -6.0082 N.am      6 UNK        -0.4434 
     40 CA         29.6903    3.9357   -7.0838 C.3       6 UNK         0.0363 
     41 CB         28.8030    5.1920   -6.9444 C.3       6 UNK        -0.1936 
     42 C          29.5008    3.1877   -8.4112 C.2       6 UNK         0.5081 
     43 O          29.6588    1.9634   -8.4519 O.2       6 UNK        -0.5248 
     44 N          29.1373    3.9167   -9.4737 N.am      7 UNK        -0.4718 
     45 CA         28.8711    3.3881  -10.8170 C.3       7 UNK         0.0273 
     46 CB         28.6607    4.5644  -11.7842 C.3       7 UNK        -0.1935 
     47 C          27.6839    2.4076  -10.8969 C.2       7 UNK         0.5018 
     48 O          27.6072    1.6487  -11.8625 O.2       7 UNK        -0.5186 
     49 N          26.7974    2.4278   -9.8894 N.am      8 UNK        -0.4240 
     50 CA         25.6706    1.5058   -9.7335 C.3       8 UNK         0.0235 
     51 CB         24.7875    1.9606   -8.5596 C.3       8 UNK        -0.2000 
     52 C          26.1316    0.0505   -9.5504 C.2       8 UNK         0.4941 
     53 O          25.7100   -0.8165  -10.3160 O.2       8 UNK        -0.5273 
     54 N          27.0049   -0.1865   -8.5592 N.am      9 UNK        -0.4262 
     55 CA         27.6490   -1.4859   -8.3398 C.3       9 UNK         0.0264 
     56 CB         28.0634   -1.6086   -6.8634 C.3       9 UNK        -0.1955 
     57 C          28.8782   -1.7031   -9.2400 C.2       9 UNK         0.5031 
     58 O          29.3260   -2.8434   -9.3624 O.2       9 UNK        -0.5390 
     59 N          29.4191   -0.6105   -9.8031 N.am      10 UNK        -0.4204 
     60 CA         30.7312   -0.4904  -10.4507 C.3       10 UNK         0.0237 
     61 CB         30.8376   -1.3749  -11.7114 C.3       10 UNK        -0.1985 
     62 C          31.8520   -0.7288   -9.4221 C.2       10 UNK         0.4970 
     63 O          32.7618   -1.5252   -9.6603 O.2       10 UNK        -0.4914 
     64 N          31.7233   -0.0473   -8.2778 N.am      11 UNK        -0.4285 
     65 CA         32.5247   -0.2507   -7.0642 C.3       11 UNK         0.1007 
     66 C          32.9002    1.0834   -6.3574 C.2       11 UNK         0.5703 
     67 N          32.8453    2.2225   -7.0371 N.am      11 UNK        -0.7361 
     68 O          33.2603    1.0938   -5.1835 O.2       11 UNK        -0.4986 
     69 C69        31.8534   -1.2989   -6.1226 C.3       12 UNK        -0.0947 
     70 S70        32.9180   -2.7412   -5.8014 S.3       12 UNK        -0.2240 
     71 C71        33.6920   -2.2959   -4.2178 C.3       12 UNK         0.0194 
     72 H72        26.3209   -1.3816   -0.0221 H         1 UNK         0.0906 
     73 H73        26.6576   -0.0854   -1.1672 H         1 UNK         0.0906 
     74 H74        25.1218   -0.9487   -1.2451 H         1 UNK         0.0906 
     75 H75        27.0796   -3.4405   -0.5685 H         1 UNK         0.3140 
     76 H76        28.5679   -3.9239   -2.9296 H         1 UNK         0.1085 
     77 H77        28.7716   -6.2358   -2.1419 H         1 UNK         0.0836 
     78 H78        27.4185   -6.0600   -1.0642 H         1 UNK         0.0836 
     79 H79        31.0453   -5.7627   -1.6829 H         1 UNK         0.0731 
     80 H80        31.7278   -5.2815   -0.1525 H         1 UNK         0.0731 
     81 H81        32.5883   -4.4853   -3.0448 H         1 UNK         0.1312 
     82 H82        32.6567   -0.2058   -2.7977 H         1 UNK         0.1406 
     83 H83        30.3711   -2.4682    0.0284 H         1 UNK         0.1631 
     84 H84        31.8503    0.8153   -0.6559 H         1 UNK         0.0717 
     85 H85        30.9305   -0.1392    0.4679 H         1 UNK         0.0717 
     86 H86        29.8611    2.9798   -1.9774 H         1 UNK         0.0934 
     87 H87        31.1404    1.9375   -2.5388 H         1 UNK         0.0934 
     88 H88        29.7204    0.9643   -4.2759 H         1 UNK         0.0739 
     89 H89        27.5601    1.9988   -2.7843 H         1 UNK         0.3093 
     90 H90        25.5745    0.9884   -3.1510 H         1 UNK         0.0818 
     91 H91        25.1884    3.3634   -3.8512 H         1 UNK         0.0819 
     92 H92        24.7953    2.8461   -5.4838 H         1 UNK         0.0819 
     93 H93        23.7434    2.4082   -4.1402 H         1 UNK         0.0819 
     94 H94        25.5254   -0.0215   -5.8552 H         1 UNK         0.3041 
     95 H95        22.8509   -2.3230   -5.1630 H         1 UNK         0.0784 
     96 H96        22.9066   -0.5585   -7.0254 H         1 UNK         0.0793 
     97 H97        24.5196   -1.1312   -7.4420 H         1 UNK         0.0793 
     98 H98        23.1365   -2.2034   -7.5804 H         1 UNK         0.0793 
     99 H99        25.6593   -2.6151   -4.8651 H         1 UNK         0.3024 
    100 H100       25.5431   -6.0540   -5.4360 H         1 UNK         0.1171 
    101 H101       27.1715   -4.3321   -7.3746 H         1 UNK         0.0786 
    102 H102       27.5036   -6.0066   -6.9424 H         1 UNK         0.0786 
    103 H103       26.0441   -5.5977   -7.8260 H         1 UNK         0.0786 
    104 H104       27.7557   -4.2359   -4.9546 H         1 UNK         0.2977 
    105 H105       28.7723    2.2330   -6.2563 H         1 UNK         0.3127 
    106 H106       30.7398    4.2291   -7.0242 H         1 UNK         0.0770 
    107 H107       27.7458    4.9562   -7.0738 H         1 UNK         0.0814 
    108 H108       29.0693    5.9565   -7.6748 H         1 UNK         0.0814 
    109 H109       28.9188    5.6490   -5.9615 H         1 UNK         0.0814 
    110 H110       29.0265    4.9136   -9.3541 H         1 UNK         0.2983 
    111 H111       29.7588    2.8384  -11.1369 H         1 UNK         0.0947 
    112 H112       28.4925    4.2089  -12.8020 H         1 UNK         0.0806 
    113 H113       29.5336    5.2169  -11.8132 H         1 UNK         0.0806 
    114 H114       27.7969    5.1686  -11.5039 H         1 UNK         0.0806 
    115 H115       26.9433    3.0993   -9.1507 H         1 UNK         0.3000 
    116 H116       25.0738    1.5532  -10.6471 H         1 UNK         0.0850 
    117 H117       25.3347    1.9626   -7.6173 H         1 UNK         0.0810 
    118 H118       23.9283    1.3000   -8.4391 H         1 UNK         0.0810 
    119 H119       24.3984    2.9658   -8.7224 H         1 UNK         0.0810 
    120 H120       27.2794    0.5667   -7.9380 H         1 UNK         0.3040 
    121 H121       26.9329   -2.2798   -8.5613 H         1 UNK         0.0766 
    122 H122       28.7634   -0.8232   -6.5783 H         1 UNK         0.0812 
    123 H123       27.2045   -1.5460   -6.1979 H         1 UNK         0.0812 
    124 H124       28.5571   -2.5604   -6.6669 H         1 UNK         0.0812 
    125 H125       28.9881    0.2751   -9.5673 H         1 UNK         0.3205 
    126 H126       30.8223    0.5483  -10.7709 H         1 UNK         0.0754 
    127 H127       31.7658   -1.1741  -12.2474 H         1 UNK         0.0769 
    128 H128       30.0155   -1.1801  -12.4003 H         1 UNK         0.0769 
    129 H129       30.8289   -2.4379  -11.4699 H         1 UNK         0.0769 
    130 H130       30.9643    0.6256   -8.1963 H         1 UNK         0.2981 
    131 H131       33.4958   -0.6349   -7.3805 H         1 UNK         0.0541 
    132 H132       33.1010    3.0784   -6.5716 H         1 UNK         0.3459 
    133 H133       32.5958    2.2288   -8.0124 H         1 UNK         0.3459 
    134 H134       30.9504   -1.7026   -6.5798 H         1 UNK         0.0612 
    135 H135       31.5140   -0.8635   -5.1818 H         1 UNK         0.0612 
    136 H136       34.5067   -2.9943   -4.0218 H         1 UNK         0.0624 
    137 H137       34.1527   -1.3112   -4.3045 H         1 UNK         0.0624 
@<TRIPOS>BOND
     1    1    2 1    
     2    1   72 1    
     3    1   73 1    
     4    1   74 1    
     5    2    3 2    
     6    2    4 am   BACKBONE|DICT|INTERRES
     7    4    5 1    
     8    4   75 1    
     9    5    6 1    
    10    5   35 1    
    11    5   76 1    
    12    6    7 1    
    13    6   77 1    
    14    6   78 1    
    15    7    8 1    
    16    8    9 1    
    17    8   79 1    
    18    8   80 1    
    19    9   10 ar   
    20    9   14 ar   
    21   10   11 ar   
    22   10   81 1    
    23   11   12 ar   
    24   11   71 1    
    25   12   13 ar   
    26   12   82 1    
    27   13   14 ar   
    28   13   15 1    
    29   14   83 1    
    30   15   16 1    
    31   15   84 1    
    32   15   85 1    
    33   16   17 1    
    34   17   18 1    
    35   17   86 1    
    36   17   87 1    
    37   18   19 1    
    38   18   37 1    
    39   18   88 1    
    40   19   20 am   BACKBONE|DICT|INTERRES
    41   19   89 1    
    42   20   21 2    
    43   20   22 1    
    44   22   23 1    
    45   22   24 1    
    46   22   90 1    
    47   23   91 1    
    48   23   92 1    
    49   23   93 1    
    50   24   25 am   BACKBONE|DICT|INTERRES
    51   24   94 1    
    52   25   26 2    
    53   25   27 1    
    54   27   28 1    
    55   27   29 1    
    56   27   95 1    
    57   28   96 1    
    58   28   97 1    
    59   28   98 1    
    60   29   30 am   BACKBONE|DICT|INTERRES
    61   29   99 1    
    62   30   31 2    
    63   30   32 1    
    64   32   33 1    
    65   32   34 1    
    66   32  100 1    
    67   33  101 1    
    68   33  102 1    
    69   33  103 1    
    70   34   35 am   BACKBONE|DICT|INTERRES
    71   34  104 1    
    72   35   36 2    
    73   37   38 2    
    74   37   39 am   BACKBONE|DICT|INTERRES
    75   39   40 1    
    76   39  105 1    
    77   40   41 1    
    78   40   42 1    
    79   40  106 1    
    80   41  107 1    
    81   41  108 1    
    82   41  109 1    
    83   42   43 2    
    84   42   44 am   BACKBONE|DICT|INTERRES
    85   44   45 1    
    86   44  110 1    
    87   45   46 1    
    88   45   47 1    
    89   45  111 1    
    90   46  112 1    
    91   46  113 1    
    92   46  114 1    
    93   47   48 2    
    94   47   49 am   BACKBONE|DICT|INTERRES
    95   49   50 1    
    96   49  115 1    
    97   50   51 1    
    98   50   52 1    
    99   50  116 1    
   100   51  117 1    
   101   51  118 1    
   102   51  119 1    
   103   52   53 2    
   104   52   54 am   BACKBONE|DICT|INTERRES
   105   54   55 1    
   106   54  120 1    
   107   55   56 1    
   108   55   57 1    
   109   55  121 1    
   110   56  122 1    
   111   56  123 1    
   112   56  124 1    
   113   57   58 2    
   114   57   59 am   BACKBONE|DICT|INTERRES
   115   59   60 1    
   116   59  125 1    
   117   60   61 1    
   118   60   62 1    
   119   60  126 1    
   120   61  127 1    
   121   61  128 1    
   122   61  129 1    
   123   62   63 2    
   124   62   64 am   BACKBONE|DICT|INTERRES
   125   64   65 1    
   126   64  130 1    
   127   65   66 1    
   128   65   69 1    
   129   65  131 1    
   130   66   67 am   BACKBONE|DICT|INTERRES
   131   66   68 2    
   132   67  132 1    
   133   67  133 1    
   134   69   70 1    
   135   69  134 1    
   136   69  135 1    
   137   70   71 1    
   138   71  136 1    
   139   71  137 1    
@<TRIPOS>SUBSTRUCTURE
     1 UNK         1 GROUP             0       ****    0 ROOT    
