@<TRIPOS>MOLECULE
3R137
137   139    1
SMALL
USER_CHARGES


@<TRIPOS>ATOM
      1 CA         27.3752   -5.6386    0.8446 C.3       0 UNK        -0.2020 
      2 C          27.2240   -4.3514    0.0490 C.2       0 UNK         0.4855 
      3 O          27.2999   -4.3856   -1.1789 O.2       0 UNK        -0.5197 
      4 N          27.0066   -3.2242    0.7421 N.am      1 UNK        -0.4892 
      5 CA         26.8493   -1.8468    0.2393 C.3       1 UNK         0.0835 
      6 C6         28.0684   -1.3124   -0.5539 C.3       12 UNK        -0.0855 
      7 S7         29.5988   -1.2007    0.4328 S.3       12 UNK        -0.2931 
      8 C8         30.5774   -2.6173   -0.1701 C.3       12 UNK         0.0378 
      9 C9         30.8021   -2.6034   -1.6785 C.ar      12 UNK        -0.0802 
     10 C10        31.4845   -1.5475   -2.2904 C.ar      12 UNK        -0.0944 
     11 C11        31.7043   -1.5526   -3.6710 C.ar      12 UNK        -0.0787 
     12 C12        31.2479   -2.6278   -4.4395 C.ar      12 UNK        -0.0862 
     13 C13        30.5612   -3.6908   -3.8416 C.ar      12 UNK        -0.0733 
     14 C14        30.3423   -3.6673   -2.4611 C.ar      12 UNK        -0.0832 
     15 C15        30.0976   -4.9017   -4.6494 C.3       12 UNK         0.0240 
     16 S16        29.4336   -4.5060   -6.3013 S.3       12 UNK        -0.2522 
     17 C17        27.8684   -3.6697   -5.8847 C.3       12 UNK        -0.0967 
     18 CA         27.5140   -2.5662   -6.9147 C.3       5 UNK         0.0660 
     19 N          26.0813   -2.2845   -6.9184 N.am      5 UNK        -0.4015 
     20 C          25.3070   -2.2553   -8.0118 C.2       4 UNK         0.4946 
     21 O          25.6993   -2.5566   -9.1395 O.2       4 UNK        -0.5353 
     22 CA         23.8390   -1.8134   -7.8365 C.3       4 UNK         0.0277 
     23 CB         22.9071   -3.0360   -7.8611 C.3       4 UNK        -0.1981 
     24 N          23.5790   -1.0415   -6.6180 N.am      4 UNK        -0.4209 
     25 C          24.1504    0.1295   -6.3036 C.2       3 UNK         0.4942 
     26 O          24.9380    0.7254   -7.0370 O.2       3 UNK        -0.5208 
     27 CA         23.8695    0.6803   -4.8955 C.3       3 UNK         0.0250 
     28 CB         22.6406    1.6022   -4.9129 C.3       3 UNK        -0.1990 
     29 N          23.6872   -0.3681   -3.8824 N.am      3 UNK        -0.4232 
     30 C          24.6016   -1.2976   -3.5704 C.2       2 UNK         0.4993 
     31 O          25.7031   -1.3879   -4.1224 O.2       2 UNK        -0.5286 
     32 CA         24.2004   -2.3407   -2.5183 C.3       2 UNK         0.0209 
     33 CB         23.9321   -3.6973   -3.1898 C.3       2 UNK        -0.1931 
     34 N          25.2673   -2.4975   -1.5342 N.am      2 UNK        -0.4546 
     35 C          25.5578   -1.6141   -0.5736 C.2       1 UNK         0.5154 
     36 O          24.8570   -0.6317   -0.3244 O.2       1 UNK        -0.5181 
     37 C          28.3082   -1.2696   -6.6675 C.2       5 UNK         0.5014 
     38 O          29.2446   -0.9860   -7.4139 O.2       5 UNK        -0.5248 
     39 N          27.9418   -0.5191   -5.6188 N.am      6 UNK        -0.4434 
     40 CA         28.7531    0.5774   -5.0878 C.3       6 UNK         0.0363 
     41 CB         28.5255    0.6649   -3.5726 C.3       6 UNK        -0.1936 
     42 C          28.5303    1.9485   -5.7447 C.2       6 UNK         0.5081 
     43 O          29.4170    2.7957   -5.6287 O.2       6 UNK        -0.5248 
     44 N          27.3707    2.1752   -6.3762 N.am      7 UNK        -0.4718 
     45 CA         27.0140    3.4617   -6.9883 C.3       7 UNK         0.0273 
     46 CB         25.7126    3.9905   -6.3615 C.3       7 UNK        -0.1935 
     47 C          26.8741    3.3471   -8.5112 C.2       7 UNK         0.5018 
     48 O          27.3162    4.2466   -9.2265 O.2       7 UNK        -0.5186 
     49 N          26.2693    2.2497   -8.9854 N.am      8 UNK        -0.4240 
     50 CA         26.0362    1.9694  -10.4054 C.3       8 UNK         0.0235 
     51 CB         24.9643    0.8753  -10.5256 C.3       8 UNK        -0.2000 
     52 C          27.3031    1.5696  -11.1861 C.2       8 UNK         0.4941 
     53 O          27.2646    1.5640  -12.4176 O.2       8 UNK        -0.5273 
     54 N          28.3901    1.2407  -10.4800 N.am      9 UNK        -0.4262 
     55 CA         29.6959    0.8995  -11.0337 C.3       9 UNK         0.0264 
     56 CB         29.8207   -0.6312  -11.1360 C.3       9 UNK        -0.1955 
     57 C          30.7839    1.4861  -10.1264 C.2       9 UNK         0.5031 
     58 O          30.5055    1.8258   -8.9733 O.2       9 UNK        -0.5390 
     59 N          32.0060    1.5901  -10.6614 N.am      10 UNK        -0.4204 
     60 CA         33.1976    1.9913   -9.9125 C.3       10 UNK         0.0237 
     61 CB         34.2778    2.4697  -10.8970 C.3       10 UNK        -0.1985 
     62 C          33.7196    0.8198   -9.0655 C.2       10 UNK         0.4970 
     63 O          33.6564   -0.3282   -9.5125 O.2       10 UNK        -0.4914 
     64 N          34.2516    1.1349   -7.8791 N.am      11 UNK        -0.4285 
     65 CA         34.8166    0.1544   -6.9368 C.3       11 UNK         0.1007 
     66 C          36.2408   -0.3611   -7.3046 C.2       11 UNK         0.5703 
     67 N          36.9246    0.2167   -8.2858 N.am      11 UNK        -0.7361 
     68 O          36.7313   -1.3098   -6.6977 O.2       11 UNK        -0.4986 
     69 C69        34.7338    0.6747   -5.4724 C.3       12 UNK        -0.0947 
     70 S70        34.2295   -0.6321   -4.3064 S.3       12 UNK        -0.2240 
     71 C71        32.4283   -0.3953   -4.3379 C.3       12 UNK         0.0194 
     72 H72        26.6047   -6.3517    0.5527 H         1 UNK         0.0906 
     73 H73        28.3479   -6.0880    0.6462 H         1 UNK         0.0906 
     74 H74        27.2926   -5.4693    1.9180 H         1 UNK         0.0906 
     75 H75        26.9350   -3.2980    1.7479 H         1 UNK         0.3140 
     76 H76        26.7497   -1.2263    1.1318 H         1 UNK         0.1085 
     77 H77        28.2324   -1.9067   -1.4531 H         1 UNK         0.0836 
     78 H78        27.8635   -0.2988   -0.9035 H         1 UNK         0.0836 
     79 H79        31.5473   -2.6083    0.3287 H         1 UNK         0.0731 
     80 H80        30.0866   -3.5398    0.1418 H         1 UNK         0.0731 
     81 H81        31.8422   -0.7214   -1.6910 H         1 UNK         0.1312 
     82 H82        31.4322   -2.6360   -5.5051 H         1 UNK         0.1406 
     83 H83        29.8200   -4.4894   -1.9906 H         1 UNK         0.1631 
     84 H84        29.3385   -5.4619   -4.1006 H         1 UNK         0.0717 
     85 H85        30.9471   -5.5744   -4.7724 H         1 UNK         0.0717 
     86 H86        27.0941   -4.4386   -5.8796 H         1 UNK         0.0934 
     87 H87        27.8993   -3.2761   -4.8660 H         1 UNK         0.0934 
     88 H88        27.8052   -2.9290   -7.9030 H         1 UNK         0.0739 
     89 H89        25.6850   -2.0050   -6.0279 H         1 UNK         0.3093 
     90 H90        23.5898   -1.1756   -8.6866 H         1 UNK         0.0818 
     91 H91        21.8587   -2.7384   -7.8331 H         1 UNK         0.0819 
     92 H92        23.0507   -3.6181   -8.7727 H         1 UNK         0.0819 
     93 H93        23.0919   -3.7022   -7.0174 H         1 UNK         0.0819 
     94 H94        22.9462   -1.4538   -5.9484 H         1 UNK         0.3041 
     95 H95        24.7382    1.2732   -4.6009 H         1 UNK         0.0784 
     96 H96        22.7541    2.3939   -5.6548 H         1 UNK         0.0793 
     97 H97        21.7280    1.0570   -5.1574 H         1 UNK         0.0793 
     98 H98        22.4946    2.0865   -3.9472 H         1 UNK         0.0793 
     99 H99        22.8074   -0.3634   -3.3857 H         1 UNK         0.3024 
    100 H100       23.2933   -2.0146   -2.0043 H         1 UNK         0.1171 
    101 H101       23.1281   -3.6212   -3.9230 H         1 UNK         0.0786 
    102 H102       23.6330   -4.4482   -2.4582 H         1 UNK         0.0786 
    103 H103       24.8152   -4.0722   -3.7098 H         1 UNK         0.0786 
    104 H104       25.9281   -3.2594   -1.6736 H         1 UNK         0.2977 
    105 H105       27.1525   -0.8154   -5.0463 H         1 UNK         0.3127 
    106 H106       29.8045    0.3319   -5.2430 H         1 UNK         0.0770 
    107 H107       27.4761    0.8335   -3.3277 H         1 UNK         0.0814 
    108 H108       29.1042    1.4770   -3.1303 H         1 UNK         0.0814 
    109 H109       28.8462   -0.2565   -3.0890 H         1 UNK         0.0814 
    110 H110       26.6866    1.4297   -6.4505 H         1 UNK         0.2983 
    111 H111       27.7912    4.2056   -6.7999 H         1 UNK         0.0947 
    112 H112       25.4628    4.9747   -6.7599 H         1 UNK         0.0806 
    113 H113       25.8067    4.0929   -5.2804 H         1 UNK         0.0806 
    114 H114       24.8654    3.3362   -6.5639 H         1 UNK         0.0806 
    115 H115       25.8699    1.5915   -8.3187 H         1 UNK         0.3000 
    116 H116       25.6462    2.8786  -10.8682 H         1 UNK         0.0850 
    117 H117       24.6951    0.7036  -11.5686 H         1 UNK         0.0810 
    118 H118       24.0520    1.1481   -9.9946 H         1 UNK         0.0810 
    119 H119       25.3201   -0.0719  -10.1223 H         1 UNK         0.0810 
    120 H120       28.3771    1.3372   -9.4720 H         1 UNK         0.3040 
    121 H121       29.8071    1.3436  -12.0254 H         1 UNK         0.0766 
    122 H122       30.7862   -0.9232  -11.5507 H         1 UNK         0.0812 
    123 H123       29.0497   -1.0490  -11.7836 H         1 UNK         0.0812 
    124 H124       29.7289   -1.1062  -10.1582 H         1 UNK         0.0812 
    125 H125       32.1583    1.2485  -11.5995 H         1 UNK         0.3205 
    126 H126       32.9357    2.8219   -9.2529 H         1 UNK         0.0754 
    127 H127       35.1667    2.8133  -10.3665 H         1 UNK         0.0769 
    128 H128       33.9215    3.3044  -11.5013 H         1 UNK         0.0769 
    129 H129       34.5897    1.6737  -11.5749 H         1 UNK         0.0769 
    130 H130       34.2959    2.1030   -7.5968 H         1 UNK         0.2981 
    131 H131       34.1757   -0.7269   -7.0104 H         1 UNK         0.0541 
    132 H132       37.8422   -0.1302   -8.5171 H         1 UNK         0.3459 
    133 H133       36.5347    0.9924   -8.7953 H         1 UNK         0.3459 
    134 H134       34.0136    1.4903   -5.3859 H         1 UNK         0.0612 
    135 H135       35.6843    1.0970   -5.1408 H         1 UNK         0.0612 
    136 H136       32.0991   -0.2994   -5.3741 H         1 UNK         0.0624 
    137 H137       32.1746    0.5436   -3.8432 H         1 UNK         0.0624 
@<TRIPOS>BOND
     1    1    2 1    
     2    1   72 1    
     3    1   73 1    
     4    1   74 1    
     5    2    3 2    
     6    2    4 am   BACKBONE|DICT|INTERRES
     7    4    5 1    
     8    4   75 1    
     9    5    6 1    
    10    5   35 1    
    11    5   76 1    
    12    6    7 1    
    13    6   77 1    
    14    6   78 1    
    15    7    8 1    
    16    8    9 1    
    17    8   79 1    
    18    8   80 1    
    19    9   10 ar   
    20    9   14 ar   
    21   10   11 ar   
    22   10   81 1    
    23   11   12 ar   
    24   11   71 1    
    25   12   13 ar   
    26   12   82 1    
    27   13   14 ar   
    28   13   15 1    
    29   14   83 1    
    30   15   16 1    
    31   15   84 1    
    32   15   85 1    
    33   16   17 1    
    34   17   18 1    
    35   17   86 1    
    36   17   87 1    
    37   18   19 1    
    38   18   37 1    
    39   18   88 1    
    40   19   20 am   BACKBONE|DICT|INTERRES
    41   19   89 1    
    42   20   21 2    
    43   20   22 1    
    44   22   23 1    
    45   22   24 1    
    46   22   90 1    
    47   23   91 1    
    48   23   92 1    
    49   23   93 1    
    50   24   25 am   BACKBONE|DICT|INTERRES
    51   24   94 1    
    52   25   26 2    
    53   25   27 1    
    54   27   28 1    
    55   27   29 1    
    56   27   95 1    
    57   28   96 1    
    58   28   97 1    
    59   28   98 1    
    60   29   30 am   BACKBONE|DICT|INTERRES
    61   29   99 1    
    62   30   31 2    
    63   30   32 1    
    64   32   33 1    
    65   32   34 1    
    66   32  100 1    
    67   33  101 1    
    68   33  102 1    
    69   33  103 1    
    70   34   35 am   BACKBONE|DICT|INTERRES
    71   34  104 1    
    72   35   36 2    
    73   37   38 2    
    74   37   39 am   BACKBONE|DICT|INTERRES
    75   39   40 1    
    76   39  105 1    
    77   40   41 1    
    78   40   42 1    
    79   40  106 1    
    80   41  107 1    
    81   41  108 1    
    82   41  109 1    
    83   42   43 2    
    84   42   44 am   BACKBONE|DICT|INTERRES
    85   44   45 1    
    86   44  110 1    
    87   45   46 1    
    88   45   47 1    
    89   45  111 1    
    90   46  112 1    
    91   46  113 1    
    92   46  114 1    
    93   47   48 2    
    94   47   49 am   BACKBONE|DICT|INTERRES
    95   49   50 1    
    96   49  115 1    
    97   50   51 1    
    98   50   52 1    
    99   50  116 1    
   100   51  117 1    
   101   51  118 1    
   102   51  119 1    
   103   52   53 2    
   104   52   54 am   BACKBONE|DICT|INTERRES
   105   54   55 1    
   106   54  120 1    
   107   55   56 1    
   108   55   57 1    
   109   55  121 1    
   110   56  122 1    
   111   56  123 1    
   112   56  124 1    
   113   57   58 2    
   114   57   59 am   BACKBONE|DICT|INTERRES
   115   59   60 1    
   116   59  125 1    
   117   60   61 1    
   118   60   62 1    
   119   60  126 1    
   120   61  127 1    
   121   61  128 1    
   122   61  129 1    
   123   62   63 2    
   124   62   64 am   BACKBONE|DICT|INTERRES
   125   64   65 1    
   126   64  130 1    
   127   65   66 1    
   128   65   69 1    
   129   65  131 1    
   130   66   67 am   BACKBONE|DICT|INTERRES
   131   66   68 2    
   132   67  132 1    
   133   67  133 1    
   134   69   70 1    
   135   69  134 1    
   136   69  135 1    
   137   70   71 1    
   138   71  136 1    
   139   71  137 1    
@<TRIPOS>SUBSTRUCTURE
     1 UNK         1 GROUP             0       ****    0 ROOT    
