@<TRIPOS>MOLECULE
3R137
137   139    1
SMALL
USER_CHARGES


@<TRIPOS>ATOM
      1 CA         29.3321   -5.1178   -6.4232 C.3       0 UNK        -0.2020 
      2 C          29.5425   -5.0867   -4.9162 C.2       0 UNK         0.4855 
      3 O          30.2731   -5.9212   -4.3807 O.2       0 UNK        -0.5197 
      4 N          28.9052   -4.1302   -4.2354 N.am      1 UNK        -0.4892 
      5 CA         28.9241   -3.9652   -2.7799 C.3       1 UNK         0.0835 
      6 C6         29.0318   -2.4592   -2.4313 C.3       12 UNK        -0.0855 
      7 S7         29.6082   -2.1186   -0.7269 S.3       12 UNK        -0.2931 
      8 C8         30.3688   -0.4659   -0.8789 C.3       12 UNK         0.0378 
      9 C9         29.5733    0.4598   -1.7889 C.ar      12 UNK        -0.0802 
     10 C10        30.1162    0.8654   -3.0105 C.ar      12 UNK        -0.0944 
     11 C11        29.3673    1.6453   -3.8928 C.ar      12 UNK        -0.0787 
     12 C12        28.0760    2.0455   -3.5383 C.ar      12 UNK        -0.0862 
     13 C13        27.5201    1.6413   -2.3211 C.ar      12 UNK        -0.0733 
     14 C14        28.2784    0.8599   -1.4432 C.ar      12 UNK        -0.0832 
     15 C15        26.0911    2.0203   -1.9641 C.3       12 UNK         0.0240 
     16 S16        24.9103    0.7293   -2.4764 S.3       12 UNK        -0.2522 
     17 C17        24.7652    1.0220   -4.2732 C.3       12 UNK        -0.0967 
     18 CA         25.5138   -0.0365   -5.1213 C.3       5 UNK         0.0660 
     19 N          24.9865   -1.3862   -4.9133 N.am      5 UNK        -0.4015 
     20 C          25.6370   -2.5117   -5.2270 C.2       4 UNK         0.4946 
     21 O          26.8405   -2.5639   -5.4940 O.2       4 UNK        -0.5353 
     22 CA         24.7837   -3.7892   -5.2481 C.3       4 UNK         0.0277 
     23 CB         25.4952   -4.9725   -5.9318 C.3       4 UNK        -0.1981 
     24 N          24.3838   -4.1713   -3.8941 N.am      4 UNK        -0.4209 
     25 C          23.2987   -3.7015   -3.2605 C.2       3 UNK         0.4942 
     26 O          22.5424   -2.8634   -3.7548 O.2       3 UNK        -0.5208 
     27 CA         22.9791   -4.2551   -1.8584 C.3       3 UNK         0.0250 
     28 CB         21.8743   -5.3211   -1.9452 C.3       3 UNK        -0.1990 
     29 N          24.1440   -4.8303   -1.1837 N.am      3 UNK        -0.4232 
     30 C          25.0942   -4.1099   -0.5751 C.2       2 UNK         0.4993 
     31 O          25.0464   -2.8861   -0.4451 O.2       2 UNK        -0.5286 
     32 CA         26.3316   -4.8638   -0.0508 C.3       2 UNK         0.0209 
     33 CB         26.1673   -6.4001    0.0262 C.3       2 UNK        -0.1931 
     34 N          27.5150   -4.4971   -0.8371 N.am      2 UNK        -0.4546 
     35 C          27.6745   -4.6342   -2.1611 C.2       1 UNK         0.5154 
     36 O          26.8695   -5.2404   -2.8741 O.2       1 UNK        -0.5181 
     37 C          25.4079    0.3036   -6.6225 C.2       5 UNK         0.5014 
     38 O          24.4311   -0.0869   -7.2688 O.2       5 UNK        -0.5248 
     39 N          26.3943    1.0331   -7.1483 N.am      6 UNK        -0.4434 
     40 CA         26.5173    1.4081   -8.5548 C.3       6 UNK         0.0363 
     41 CB         27.1295    0.2361   -9.3537 C.3       6 UNK        -0.1936 
     42 C          27.3476    2.6968   -8.6678 C.2       6 UNK         0.5081 
     43 O          27.6331    3.3425   -7.6553 O.2       6 UNK        -0.5248 
     44 N          27.7101    3.0613   -9.9029 N.am      7 UNK        -0.4718 
     45 CA         28.4972    4.2457  -10.2475 C.3       7 UNK         0.0273 
     46 CB         28.3274    4.5254  -11.7527 C.3       7 UNK        -0.1935 
     47 C          29.9808    4.1132   -9.8483 C.2       7 UNK         0.5018 
     48 O          30.8260    3.8689  -10.7128 O.2       7 UNK        -0.5186 
     49 N          30.2615    4.2861   -8.5485 N.am      8 UNK        -0.4240 
     50 CA         31.5828    4.4034   -7.9152 C.3       8 UNK         0.0235 
     51 CB         32.1972    5.7863   -8.2262 C.3       8 UNK        -0.2000 
     52 C          32.5235    3.2324   -8.2536 C.2       8 UNK         0.4941 
     53 O          32.4223    2.1788   -7.6278 O.2       8 UNK        -0.5273 
     54 N          33.3970    3.4163   -9.2548 N.am      9 UNK        -0.4262 
     55 CA         34.3149    2.4009   -9.7830 C.3       9 UNK         0.0264 
     56 CB         35.1850    3.0275  -10.8840 C.3       9 UNK        -0.1955 
     57 C          33.6142    1.1325  -10.3067 C.2       9 UNK         0.5031 
     58 O          34.2191    0.0593  -10.2779 O.2       9 UNK        -0.5390 
     59 N          32.3443    1.2577  -10.7237 N.am      10 UNK        -0.4204 
     60 CA         31.4747    0.1415  -11.1082 C.3       10 UNK         0.0237 
     61 CB         30.1599    0.6977  -11.6764 C.3       10 UNK        -0.1985 
     62 C          31.1858   -0.8559   -9.9673 C.2       10 UNK         0.4970 
     63 O          30.8171   -1.9942  -10.2587 O.2       10 UNK        -0.4914 
     64 N          31.3609   -0.4334   -8.7070 N.am      11 UNK        -0.4285 
     65 CA         31.2332   -1.2863   -7.5145 C.3       11 UNK         0.1007 
     66 C          32.4347   -2.2521   -7.2969 C.2       11 UNK         0.5703 
     67 N          33.5360   -2.1326   -8.0322 N.am      11 UNK        -0.7361 
     68 O          32.3629   -3.1359   -6.4473 O.2       11 UNK        -0.4986 
     69 C69        30.9492   -0.4586   -6.2322 C.3       12 UNK        -0.0947 
     70 S70        29.5570    0.6958   -6.4527 S.3       12 UNK        -0.2240 
     71 C71        29.9325    2.0068   -5.2531 C.3       12 UNK         0.0194 
     72 H72        28.7205   -4.2822   -6.7648 H         1 UNK         0.0906 
     73 H73        30.2916   -5.0653   -6.9371 H         1 UNK         0.0906 
     74 H74        28.8368   -6.0435   -6.7146 H         1 UNK         0.0906 
     75 H75        28.2448   -3.5275   -4.7264 H         1 UNK         0.3140 
     76 H76        29.7984   -4.4765   -2.3713 H         1 UNK         0.1085 
     77 H77        28.0825   -1.9464   -2.6047 H         1 UNK         0.0836 
     78 H78        29.7474   -1.9935   -3.1112 H         1 UNK         0.0836 
     79 H79        31.3889   -0.5856   -1.2476 H         1 UNK         0.0731 
     80 H80        30.4523   -0.0178    0.1121 H         1 UNK         0.0731 
     81 H81        31.1077    0.5415   -3.2960 H         1 UNK         0.1312 
     82 H82        27.4937    2.6438   -4.2253 H         1 UNK         0.1406 
     83 H83        27.8471    0.5263   -0.5089 H         1 UNK         0.1631 
     84 H84        25.8195    2.9775   -2.4118 H         1 UNK         0.0717 
     85 H85        26.0088    2.1589   -0.8850 H         1 UNK         0.0717 
     86 H86        23.7026    1.0275   -4.5246 H         1 UNK         0.0934 
     87 H87        25.1263    2.0258   -4.5032 H         1 UNK         0.0934 
     88 H88        26.5687   -0.0325   -4.8372 H         1 UNK         0.0739 
     89 H89        24.0040   -1.4552   -4.6791 H         1 UNK         0.3093 
     90 H90        23.8918   -3.5721   -5.8405 H         1 UNK         0.0818 
     91 H91        26.4015   -5.2680   -5.4054 H         1 UNK         0.0819 
     92 H92        24.8446   -5.8450   -5.9896 H         1 UNK         0.0819 
     93 H93        25.7835   -4.7152   -6.9518 H         1 UNK         0.0819 
     94 H94        25.0342   -4.7735   -3.3969 H         1 UNK         0.3041 
     95 H95        22.6011   -3.4242   -1.2583 H         1 UNK         0.0784 
     96 H96        20.9775   -4.9159   -2.4162 H         1 UNK         0.0793 
     97 H97        22.1895   -6.1839   -2.5335 H         1 UNK         0.0793 
     98 H98        21.5858   -5.6754   -0.9554 H         1 UNK         0.0793 
     99 H99        24.2744   -5.8287   -1.2629 H         1 UNK         0.3024 
    100 H100       26.5006   -4.4983    0.9636 H         1 UNK         0.1171 
    101 H101       27.0448   -6.8599    0.4809 H         1 UNK         0.0786 
    102 H102       25.3108   -6.6730    0.6443 H         1 UNK         0.0786 
    103 H103       26.0312   -6.8602   -0.9528 H         1 UNK         0.0786 
    104 H104       28.2010   -3.9298   -0.3529 H         1 UNK         0.2977 
    105 H105       27.1517    1.3697   -6.5655 H         1 UNK         0.3127 
    106 H106       25.5245    1.6325   -8.9504 H         1 UNK         0.0770 
    107 H107       28.1588    0.0374   -9.0533 H         1 UNK         0.0814 
    108 H108       27.1311    0.4355  -10.4252 H         1 UNK         0.0814 
    109 H109       26.5621   -0.6833   -9.2084 H         1 UNK         0.0814 
    110 H110       27.4363    2.4720  -10.6754 H         1 UNK         0.2983 
    111 H111       28.0886    5.1020   -9.7057 H         1 UNK         0.0947 
    112 H112       28.8954    5.4074  -12.0517 H         1 UNK         0.0806 
    113 H113       27.2841    4.7132  -12.0071 H         1 UNK         0.0806 
    114 H114       28.6774    3.6915  -12.3628 H         1 UNK         0.0806 
    115 H115       29.4653    4.3349   -7.9212 H         1 UNK         0.3000 
    116 H116       31.4156    4.3543   -6.8381 H         1 UNK         0.0850 
    117 H117       33.1873    5.8882   -7.7792 H         1 UNK         0.0810 
    118 H118       31.5799    6.5859   -7.8164 H         1 UNK         0.0810 
    119 H119       32.2949    5.9678   -9.2971 H         1 UNK         0.0810 
    120 H120       33.3733    4.3010   -9.7411 H         1 UNK         0.3040 
    121 H121       34.9663    2.0932   -8.9624 H         1 UNK         0.0766 
    122 H122       35.8963    2.3011  -11.2799 H         1 UNK         0.0812 
    123 H123       35.7636    3.8694  -10.5032 H         1 UNK         0.0812 
    124 H124       34.5824    3.3830  -11.7209 H         1 UNK         0.0812 
    125 H125       31.9222    2.1830  -10.7136 H         1 UNK         0.3205 
    126 H126       31.9830   -0.4121  -11.9002 H         1 UNK         0.0754 
    127 H127       29.6071    1.2545  -10.9213 H         1 UNK         0.0769 
    128 H128       29.5128   -0.1068  -12.0287 H         1 UNK         0.0769 
    129 H129       30.3397    1.3640  -12.5205 H         1 UNK         0.0769 
    130 H130       31.6722    0.5156   -8.5270 H         1 UNK         0.2981 
    131 H131       30.3646   -1.9289   -7.6714 H         1 UNK         0.0541 
    132 H132       33.6161   -1.4117   -8.7377 H         1 UNK         0.3459 
    133 H133       34.3000   -2.7707   -7.8777 H         1 UNK         0.3459 
    134 H134       31.8376    0.1051   -5.9433 H         1 UNK         0.0612 
    135 H135       30.7111   -1.1167   -5.3946 H         1 UNK         0.0612 
    136 H136       29.4928    2.9410   -5.6046 H         1 UNK         0.0624 
    137 H137       31.0083    2.1778   -5.1960 H         1 UNK         0.0624 
@<TRIPOS>BOND
     1    1    2 1    
     2    1   72 1    
     3    1   73 1    
     4    1   74 1    
     5    2    3 2    
     6    2    4 am   BACKBONE|DICT|INTERRES
     7    4    5 1    
     8    4   75 1    
     9    5    6 1    
    10    5   35 1    
    11    5   76 1    
    12    6    7 1    
    13    6   77 1    
    14    6   78 1    
    15    7    8 1    
    16    8    9 1    
    17    8   79 1    
    18    8   80 1    
    19    9   10 ar   
    20    9   14 ar   
    21   10   11 ar   
    22   10   81 1    
    23   11   12 ar   
    24   11   71 1    
    25   12   13 ar   
    26   12   82 1    
    27   13   14 ar   
    28   13   15 1    
    29   14   83 1    
    30   15   16 1    
    31   15   84 1    
    32   15   85 1    
    33   16   17 1    
    34   17   18 1    
    35   17   86 1    
    36   17   87 1    
    37   18   19 1    
    38   18   37 1    
    39   18   88 1    
    40   19   20 am   BACKBONE|DICT|INTERRES
    41   19   89 1    
    42   20   21 2    
    43   20   22 1    
    44   22   23 1    
    45   22   24 1    
    46   22   90 1    
    47   23   91 1    
    48   23   92 1    
    49   23   93 1    
    50   24   25 am   BACKBONE|DICT|INTERRES
    51   24   94 1    
    52   25   26 2    
    53   25   27 1    
    54   27   28 1    
    55   27   29 1    
    56   27   95 1    
    57   28   96 1    
    58   28   97 1    
    59   28   98 1    
    60   29   30 am   BACKBONE|DICT|INTERRES
    61   29   99 1    
    62   30   31 2    
    63   30   32 1    
    64   32   33 1    
    65   32   34 1    
    66   32  100 1    
    67   33  101 1    
    68   33  102 1    
    69   33  103 1    
    70   34   35 am   BACKBONE|DICT|INTERRES
    71   34  104 1    
    72   35   36 2    
    73   37   38 2    
    74   37   39 am   BACKBONE|DICT|INTERRES
    75   39   40 1    
    76   39  105 1    
    77   40   41 1    
    78   40   42 1    
    79   40  106 1    
    80   41  107 1    
    81   41  108 1    
    82   41  109 1    
    83   42   43 2    
    84   42   44 am   BACKBONE|DICT|INTERRES
    85   44   45 1    
    86   44  110 1    
    87   45   46 1    
    88   45   47 1    
    89   45  111 1    
    90   46  112 1    
    91   46  113 1    
    92   46  114 1    
    93   47   48 2    
    94   47   49 am   BACKBONE|DICT|INTERRES
    95   49   50 1    
    96   49  115 1    
    97   50   51 1    
    98   50   52 1    
    99   50  116 1    
   100   51  117 1    
   101   51  118 1    
   102   51  119 1    
   103   52   53 2    
   104   52   54 am   BACKBONE|DICT|INTERRES
   105   54   55 1    
   106   54  120 1    
   107   55   56 1    
   108   55   57 1    
   109   55  121 1    
   110   56  122 1    
   111   56  123 1    
   112   56  124 1    
   113   57   58 2    
   114   57   59 am   BACKBONE|DICT|INTERRES
   115   59   60 1    
   116   59  125 1    
   117   60   61 1    
   118   60   62 1    
   119   60  126 1    
   120   61  127 1    
   121   61  128 1    
   122   61  129 1    
   123   62   63 2    
   124   62   64 am   BACKBONE|DICT|INTERRES
   125   64   65 1    
   126   64  130 1    
   127   65   66 1    
   128   65   69 1    
   129   65  131 1    
   130   66   67 am   BACKBONE|DICT|INTERRES
   131   66   68 2    
   132   67  132 1    
   133   67  133 1    
   134   69   70 1    
   135   69  134 1    
   136   69  135 1    
   137   70   71 1    
   138   71  136 1    
   139   71  137 1    
@<TRIPOS>SUBSTRUCTURE
     1 UNK         1 GROUP             0       ****    0 ROOT    
