@<TRIPOS>MOLECULE
3R137
137   139    1
SMALL
USER_CHARGES


@<TRIPOS>ATOM
      1 CA         26.6806   -5.1108    1.4724 C.3       0 UNK        -0.2020 
      2 C          26.8186   -3.6199    1.2035 C.2       0 UNK         0.4855 
      3 O          26.1985   -2.8127    1.8961 O.2       0 UNK        -0.5197 
      4 N          27.6284   -3.2495    0.2029 N.am      1 UNK        -0.4892 
      5 CA         27.8734   -1.8586   -0.2049 C.3       1 UNK         0.0835 
      6 C6         29.1495   -1.7338   -1.0735 C.3       12 UNK        -0.0855 
      7 S7         30.6716   -2.0525   -0.1128 S.3       12 UNK        -0.2931 
      8 C8         31.0989   -3.7738   -0.5419 C.3       12 UNK         0.0378 
      9 C9         31.4302   -3.9394   -2.0182 C.ar      12 UNK        -0.0802 
     10 C10        32.5922   -3.3699   -2.5487 C.ar      12 UNK        -0.0944 
     11 C11        32.8907   -3.4836   -3.9105 C.ar      12 UNK        -0.0787 
     12 C12        32.0169   -4.2028   -4.7361 C.ar      12 UNK        -0.0862 
     13 C13        30.8411   -4.7567   -4.2231 C.ar      12 UNK        -0.0733 
     14 C14        30.5643   -4.6440   -2.8587 C.ar      12 UNK        -0.0832 
     15 C15        29.8282   -5.3900   -5.1683 C.3       12 UNK         0.0240 
     16 S16        28.2268   -4.5062   -5.1733 S.3       12 UNK        -0.2522 
     17 C17        28.7061   -2.7406   -5.2201 C.3       12 UNK        -0.0967 
     18 CA         28.2453   -2.0032   -6.4979 C.3       5 UNK         0.0660 
     19 N          26.7977   -2.0326   -6.6610 N.am      5 UNK        -0.4015 
     20 C          26.1638   -1.9329   -7.8337 C.2       4 UNK         0.4946 
     21 O          26.7369   -1.8648   -8.9209 O.2       4 UNK        -0.5353 
     22 CA         24.6273   -1.8398   -7.7721 C.3       4 UNK         0.0277 
     23 CB         24.0056   -3.2421   -7.6778 C.3       4 UNK        -0.1981 
     24 N          24.1542   -1.0156   -6.6554 N.am      4 UNK        -0.4209 
     25 C          24.4837    0.2712   -6.4712 C.2       3 UNK         0.4942 
     26 O          25.1430    0.9259   -7.2789 O.2       3 UNK        -0.5208 
     27 CA         24.0699    0.9251   -5.1409 C.3       3 UNK         0.0250 
     28 CB         22.7405    1.6767   -5.3075 C.3       3 UNK        -0.1990 
     29 N          23.9738   -0.0013   -4.0029 N.am      3 UNK        -0.4232 
     30 C          24.9675   -0.7787   -3.5472 C.2       2 UNK         0.4993 
     31 O          26.0750   -0.8575   -4.0836 O.2       2 UNK        -0.5286 
     32 CA         24.6460   -1.6657   -2.3333 C.3       2 UNK         0.0209 
     33 CB         23.9105   -2.9369   -2.7897 C.3       2 UNK        -0.1931 
     34 N          25.8464   -2.0633   -1.5919 N.am      2 UNK        -0.4546 
     35 C          26.6552   -1.2313   -0.9185 C.2       1 UNK         0.5154 
     36 O          26.4602   -0.0183   -0.8232 O.2       1 UNK        -0.5181 
     37 C          28.7372   -0.5458   -6.4628 C.2       5 UNK         0.5014 
     38 O          29.6207   -0.1778   -7.2352 O.2       5 UNK        -0.5248 
     39 N          28.1844    0.2409   -5.5313 N.am      6 UNK        -0.4434 
     40 CA         28.7131    1.5407   -5.1217 C.3       6 UNK         0.0363 
     41 CB         28.0965    1.9227   -3.7662 C.3       6 UNK        -0.1936 
     42 C          28.5119    2.6747   -6.1376 C.2       6 UNK         0.5081 
     43 O          29.3316    3.5931   -6.1578 O.2       6 UNK        -0.5248 
     44 N          27.4371    2.6213   -6.9349 N.am      7 UNK        -0.4718 
     45 CA         27.0625    3.6834   -7.8712 C.3       7 UNK         0.0273 
     46 CB         25.6913    4.2635   -7.4817 C.3       7 UNK        -0.1935 
     47 C          27.0593    3.1906   -9.3216 C.2       7 UNK         0.5018 
     48 O          27.6422    3.8630  -10.1720 O.2       7 UNK        -0.5186 
     49 N          26.4078    2.0483   -9.5918 N.am      8 UNK        -0.4240 
     50 CA         26.2581    1.5116  -10.9498 C.3       8 UNK         0.0235 
     51 CB         25.1131    0.4896  -11.0136 C.3       8 UNK        -0.2000 
     52 C          27.5751    0.9396  -11.4972 C.2       8 UNK         0.4941 
     53 O          28.0313    1.3892  -12.5494 O.2       8 UNK        -0.5273 
     54 N          28.1861   -0.0056  -10.7660 N.am      9 UNK        -0.4262 
     55 CA         29.5309   -0.5142  -11.0683 C.3       9 UNK         0.0264 
     56 CB         29.7377   -1.8781  -10.3917 C.3       9 UNK        -0.1955 
     57 C          30.6469    0.4683  -10.6618 C.2       9 UNK         0.5031 
     58 O          31.7477    0.3790  -11.2072 O.2       9 UNK        -0.5390 
     59 N          30.3395    1.3778   -9.7240 N.am      10 UNK        -0.4204 
     60 CA         31.2034    2.4196   -9.1563 C.3       10 UNK         0.0237 
     61 CB         31.5697    3.4715  -10.2249 C.3       10 UNK        -0.1985 
     62 C          32.4294    1.8520   -8.4128 C.2       10 UNK         0.4970 
     63 O          33.5251    2.4074   -8.5170 O.2       10 UNK        -0.4914 
     64 N          32.2237    0.7505   -7.6808 N.am      11 UNK        -0.4285 
     65 CA         33.2367    0.0885   -6.8519 C.3       11 UNK         0.1007 
     66 C          33.6106    0.9284   -5.6000 C.2       11 UNK         0.5703 
     67 N          34.8790    0.9391   -5.2129 N.am      11 UNK        -0.7361 
     68 O          32.7569    1.5388   -4.9593 O.2       11 UNK        -0.4986 
     69 C69        32.7787   -1.3426   -6.4680 C.3       12 UNK        -0.0947 
     70 S70        34.1833   -2.4878   -6.2469 S.3       12 UNK        -0.2240 
     71 C71        34.1518   -2.7995   -4.4451 C.3       12 UNK         0.0194 
     72 H72        26.9906   -5.3378    2.4922 H         1 UNK         0.0906 
     73 H73        25.6417   -5.4182    1.3560 H         1 UNK         0.0906 
     74 H74        27.2889   -5.7077    0.7932 H         1 UNK         0.0906 
     75 H75        28.1198   -3.9558   -0.3236 H         1 UNK         0.3140 
     76 H76        28.0268   -1.2687    0.7021 H         1 UNK         0.1085 
     77 H77        29.0975   -2.3899   -1.9428 H         1 UNK         0.0836 
     78 H78        29.2409   -0.7216   -1.4730 H         1 UNK         0.0836 
     79 H79        31.9635   -4.0765    0.0506 H         1 UNK         0.0731 
     80 H80        30.2846   -4.4356   -0.2451 H         1 UNK         0.0731 
     81 H81        33.2549   -2.8149   -1.8982 H         1 UNK         0.1312 
     82 H82        32.2203   -4.2979   -5.7929 H         1 UNK         0.1406 
     83 H83        29.6500   -5.0677   -2.4661 H         1 UNK         0.1631 
     84 H84        29.6620   -6.4281   -4.8777 H         1 UNK         0.0717 
     85 H85        30.2120   -5.4136   -6.1894 H         1 UNK         0.0717 
     86 H86        28.2885   -2.2752   -4.3260 H         1 UNK         0.0934 
     87 H87        29.7852   -2.6317   -5.1232 H         1 UNK         0.0934 
     88 H88        28.7096   -2.4987   -7.3521 H         1 UNK         0.0739 
     89 H89        26.2588   -2.0010   -5.8043 H         1 UNK         0.3093 
     90 H90        24.2787   -1.3740   -8.6944 H         1 UNK         0.0818 
     91 H91        22.9169   -3.1976   -7.7139 H         1 UNK         0.0819 
     92 H92        24.3299   -3.8674   -8.5110 H         1 UNK         0.0819 
     93 H93        24.2916   -3.7527   -6.7572 H         1 UNK         0.0819 
     94 H94        23.5995   -1.4736   -5.9477 H         1 UNK         0.3041 
     95 H95        24.8419    1.6570   -4.8962 H         1 UNK         0.0784 
     96 H96        22.7951    2.3885   -6.1329 H         1 UNK         0.0793 
     97 H97        21.9143    0.9963   -5.5181 H         1 UNK         0.0793 
     98 H98        22.4897    2.2444   -4.4113 H         1 UNK         0.0793 
     99 H99        23.0887   -0.0155   -3.5161 H         1 UNK         0.3024 
    100 H100       24.0038   -1.1013   -1.6535 H         1 UNK         0.1171 
    101 H101       22.9829   -2.6935   -3.3096 H         1 UNK         0.0786 
    102 H102       23.6442   -3.5673   -1.9409 H         1 UNK         0.0786 
    103 H103       24.5199   -3.5327   -3.4712 H         1 UNK         0.0786 
    104 H104       26.0933   -3.0410   -1.6195 H         1 UNK         0.2977 
    105 H105       27.4304   -0.1415   -4.9595 H         1 UNK         0.3127 
    106 H106       29.7906    1.4272   -4.9794 H         1 UNK         0.0770 
    107 H107       27.0140    2.0343   -3.8317 H         1 UNK         0.0814 
    108 H108       28.5016    2.8687   -3.4045 H         1 UNK         0.0814 
    109 H109       28.3068    1.1693   -3.0069 H         1 UNK         0.0814 
    110 H110       26.8050    1.8285   -6.8761 H         1 UNK         0.2983 
    111 H111       27.7819    4.5041   -7.8244 H         1 UNK         0.0947 
    112 H112       25.4109    5.0787   -8.1499 H         1 UNK         0.0806 
    113 H113       25.7075    4.6666   -6.4691 H         1 UNK         0.0806 
    114 H114       24.8978    3.5181   -7.5304 H         1 UNK         0.0806 
    115 H115       25.9327    1.5612   -8.8344 H         1 UNK         0.3000 
    116 H116       25.9735    2.3443  -11.5975 H         1 UNK         0.0850 
    117 H117       24.9053    0.2100  -12.0471 H         1 UNK         0.0810 
    118 H118       24.1916    0.8945  -10.5948 H         1 UNK         0.0810 
    119 H119       25.3521   -0.4258  -10.4796 H         1 UNK         0.0810 
    120 H120       27.7097   -0.4081   -9.9635 H         1 UNK         0.3040 
    121 H121       29.6067   -0.6655  -12.1473 H         1 UNK         0.0766 
    122 H122       30.6967   -2.3122  -10.6772 H         1 UNK         0.0812 
    123 H123       28.9607   -2.5874  -10.6774 H         1 UNK         0.0812 
    124 H124       29.7325   -1.7938   -9.3069 H         1 UNK         0.0812 
    125 H125       29.4231    1.2999   -9.3066 H         1 UNK         0.3205 
    126 H126       30.6047    2.9261   -8.3998 H         1 UNK         0.0754 
    127 H127       32.0967    4.3156   -9.7786 H         1 UNK         0.0769 
    128 H128       30.6769    3.8679  -10.7094 H         1 UNK         0.0769 
    129 H129       32.2158    3.0559  -10.9987 H         1 UNK         0.0769 
    130 H130       31.2750    0.3873   -7.6003 H         1 UNK         0.2981 
    131 H131       34.1267    0.0046   -7.4792 H         1 UNK         0.0541 
    132 H132       35.5814    0.4259   -5.7221 H         1 UNK         0.3459 
    133 H133       35.1379    1.4698   -4.3963 H         1 UNK         0.3459 
    134 H134       32.1683   -1.7682   -7.2665 H         1 UNK         0.0612 
    135 H135       32.1360   -1.3337   -5.5855 H         1 UNK         0.0612 
    136 H136       35.0126   -3.4186   -4.1904 H         1 UNK         0.0624 
    137 H137       34.2945   -1.8453   -3.9353 H         1 UNK         0.0624 
@<TRIPOS>BOND
     1    1    2 1    
     2    1   72 1    
     3    1   73 1    
     4    1   74 1    
     5    2    3 2    
     6    2    4 am   BACKBONE|DICT|INTERRES
     7    4    5 1    
     8    4   75 1    
     9    5    6 1    
    10    5   35 1    
    11    5   76 1    
    12    6    7 1    
    13    6   77 1    
    14    6   78 1    
    15    7    8 1    
    16    8    9 1    
    17    8   79 1    
    18    8   80 1    
    19    9   10 ar   
    20    9   14 ar   
    21   10   11 ar   
    22   10   81 1    
    23   11   12 ar   
    24   11   71 1    
    25   12   13 ar   
    26   12   82 1    
    27   13   14 ar   
    28   13   15 1    
    29   14   83 1    
    30   15   16 1    
    31   15   84 1    
    32   15   85 1    
    33   16   17 1    
    34   17   18 1    
    35   17   86 1    
    36   17   87 1    
    37   18   19 1    
    38   18   37 1    
    39   18   88 1    
    40   19   20 am   BACKBONE|DICT|INTERRES
    41   19   89 1    
    42   20   21 2    
    43   20   22 1    
    44   22   23 1    
    45   22   24 1    
    46   22   90 1    
    47   23   91 1    
    48   23   92 1    
    49   23   93 1    
    50   24   25 am   BACKBONE|DICT|INTERRES
    51   24   94 1    
    52   25   26 2    
    53   25   27 1    
    54   27   28 1    
    55   27   29 1    
    56   27   95 1    
    57   28   96 1    
    58   28   97 1    
    59   28   98 1    
    60   29   30 am   BACKBONE|DICT|INTERRES
    61   29   99 1    
    62   30   31 2    
    63   30   32 1    
    64   32   33 1    
    65   32   34 1    
    66   32  100 1    
    67   33  101 1    
    68   33  102 1    
    69   33  103 1    
    70   34   35 am   BACKBONE|DICT|INTERRES
    71   34  104 1    
    72   35   36 2    
    73   37   38 2    
    74   37   39 am   BACKBONE|DICT|INTERRES
    75   39   40 1    
    76   39  105 1    
    77   40   41 1    
    78   40   42 1    
    79   40  106 1    
    80   41  107 1    
    81   41  108 1    
    82   41  109 1    
    83   42   43 2    
    84   42   44 am   BACKBONE|DICT|INTERRES
    85   44   45 1    
    86   44  110 1    
    87   45   46 1    
    88   45   47 1    
    89   45  111 1    
    90   46  112 1    
    91   46  113 1    
    92   46  114 1    
    93   47   48 2    
    94   47   49 am   BACKBONE|DICT|INTERRES
    95   49   50 1    
    96   49  115 1    
    97   50   51 1    
    98   50   52 1    
    99   50  116 1    
   100   51  117 1    
   101   51  118 1    
   102   51  119 1    
   103   52   53 2    
   104   52   54 am   BACKBONE|DICT|INTERRES
   105   54   55 1    
   106   54  120 1    
   107   55   56 1    
   108   55   57 1    
   109   55  121 1    
   110   56  122 1    
   111   56  123 1    
   112   56  124 1    
   113   57   58 2    
   114   57   59 am   BACKBONE|DICT|INTERRES
   115   59   60 1    
   116   59  125 1    
   117   60   61 1    
   118   60   62 1    
   119   60  126 1    
   120   61  127 1    
   121   61  128 1    
   122   61  129 1    
   123   62   63 2    
   124   62   64 am   BACKBONE|DICT|INTERRES
   125   64   65 1    
   126   64  130 1    
   127   65   66 1    
   128   65   69 1    
   129   65  131 1    
   130   66   67 am   BACKBONE|DICT|INTERRES
   131   66   68 2    
   132   67  132 1    
   133   67  133 1    
   134   69   70 1    
   135   69  134 1    
   136   69  135 1    
   137   70   71 1    
   138   71  136 1    
   139   71  137 1    
@<TRIPOS>SUBSTRUCTURE
     1 UNK         1 GROUP             0       ****    0 ROOT    
