@<TRIPOS>MOLECULE
3R137
137   139    1
SMALL
USER_CHARGES


@<TRIPOS>ATOM
      1 CA         23.8663   -4.0376    1.1068 C.3       0 UNK        -0.2020 
      2 C          25.3479   -3.6946    1.0560 C.2       0 UNK         0.4855 
      3 O          25.8917   -3.1877    2.0381 O.2       0 UNK        -0.5197 
      4 N          26.0015   -3.9761   -0.0783 N.am      1 UNK        -0.4892 
      5 CA         27.4033   -3.6374   -0.3488 C.3       1 UNK         0.0835 
      6 C6         28.0579   -4.6798   -1.2957 C.3       12 UNK        -0.0855 
      7 S7         29.8512   -4.8573   -0.9937 S.3       12 UNK        -0.2931 
      8 C8         30.3136   -6.0965   -2.2425 C.3       12 UNK         0.0378 
      9 C9         30.2287   -5.5341   -3.6534 C.ar      12 UNK        -0.0802 
     10 C10        31.2706   -4.7547   -4.1665 C.ar      12 UNK        -0.0944 
     11 C11        31.2063   -4.2409   -5.4661 C.ar      12 UNK        -0.0787 
     12 C12        30.0842   -4.5263   -6.2540 C.ar      12 UNK        -0.0862 
     13 C13        29.0271   -5.2840   -5.7435 C.ar      12 UNK        -0.0733 
     14 C14        29.1096   -5.7967   -4.4476 C.ar      12 UNK        -0.0832 
     15 C15        27.7843   -5.5291   -6.5842 C.3       12 UNK         0.0240 
     16 S16        26.4590   -4.3580   -6.1540 S.3       12 UNK        -0.2522 
     17 C17        27.2073   -2.7780   -6.6781 C.3       12 UNK        -0.0967 
     18 CA         26.1937   -1.6059   -6.6748 C.3       5 UNK         0.0660 
     19 N          25.6803   -1.3368   -5.3325 N.am      5 UNK        -0.4015 
     20 C          24.4080   -1.4747   -4.9339 C.2       4 UNK         0.4946 
     21 O          23.4987   -1.8756   -5.6616 O.2       4 UNK        -0.5353 
     22 CA         24.0771   -1.0754   -3.4803 C.3       4 UNK         0.0277 
     23 CB         24.0297   -2.3243   -2.5866 C.3       4 UNK        -0.1981 
     24 N          25.0195   -0.1031   -2.9142 N.am      4 UNK        -0.4209 
     25 C          25.2062    1.1326   -3.4044 C.2       3 UNK         0.4942 
     26 O          24.4984    1.6182   -4.2868 O.2       3 UNK        -0.5208 
     27 CA         26.4066    1.9491   -2.8887 C.3       3 UNK         0.0250 
     28 CB         25.9342    3.0436   -1.9189 C.3       3 UNK        -0.1990 
     29 N          27.4652    1.1640   -2.2478 N.am      3 UNK        -0.4232 
     30 C          28.1559    0.1507   -2.7928 C.2       2 UNK         0.4993 
     31 O          27.9701   -0.2738   -3.9346 O.2       2 UNK        -0.5286 
     32 CA         29.1850   -0.5488   -1.8836 C.3       2 UNK         0.0209 
     33 CB         29.6484    0.3146   -0.6891 C.3       2 UNK        -0.1931 
     34 N          28.7284   -1.8559   -1.3956 N.am      2 UNK        -0.4546 
     35 C          27.5447   -2.1792   -0.8529 C.2       1 UNK         0.5154 
     36 O          26.6031   -1.3876   -0.7437 O.2       1 UNK        -0.5181 
     37 C          26.7981   -0.3151   -7.2681 C.2       5 UNK         0.5014 
     38 O          27.7678   -0.3911   -8.0247 O.2       5 UNK        -0.5248 
     39 N          26.2109    0.8550   -6.9573 N.am      6 UNK        -0.4434 
     40 CA         26.6518    2.1761   -7.4352 C.3       6 UNK         0.0363 
     41 CB         25.7581    3.2754   -6.8392 C.3       6 UNK        -0.1936 
     42 C          26.7124    2.3243   -8.9673 C.2       6 UNK         0.5081 
     43 O          27.4966    3.1336   -9.4611 O.2       6 UNK        -0.5248 
     44 N          25.9334    1.5115   -9.6960 N.am      7 UNK        -0.4718 
     45 CA         25.9595    1.3920  -11.1577 C.3       7 UNK         0.0273 
     46 CB         24.8400    0.4368  -11.6018 C.3       7 UNK        -0.1935 
     47 C          27.3162    0.9350  -11.7329 C.2       7 UNK         0.5018 
     48 O          27.5914    1.2162  -12.8998 O.2       7 UNK        -0.5186 
     49 N          28.1480    0.2691  -10.9160 N.am      8 UNK        -0.4240 
     50 CA         29.5252   -0.0975  -11.2578 C.3       8 UNK         0.0235 
     51 CB         29.9750   -1.2578  -10.3546 C.3       8 UNK        -0.2000 
     52 C          30.5136    1.0803  -11.1480 C.2       8 UNK         0.4941 
     53 O          31.6542    0.9368  -11.5918 O.2       8 UNK        -0.5273 
     54 N          30.0876    2.2041  -10.5470 N.am      9 UNK        -0.4262 
     55 CA         30.8193    3.4510  -10.2856 C.3       9 UNK         0.0264 
     56 CB         31.2825    4.1284  -11.5906 C.3       9 UNK        -0.1955 
     57 C          31.9753    3.2985   -9.2836 C.2       9 UNK         0.5031 
     58 O          31.9723    3.9703   -8.2512 O.2       9 UNK        -0.5390 
     59 N          32.9257    2.4051   -9.5853 N.am      10 UNK        -0.4204 
     60 CA         34.1178    2.1128   -8.7823 C.3       10 UNK         0.0237 
     61 CB         35.0213    1.1414   -9.5587 C.3       10 UNK        -0.1985 
     62 C          33.8064    1.5541   -7.3825 C.2       10 UNK         0.4970 
     63 O          34.5977    1.7624   -6.4620 O.2       10 UNK        -0.4914 
     64 N          32.6637    0.8709   -7.2485 N.am      11 UNK        -0.4285 
     65 CA         32.1416    0.3448   -5.9791 C.3       11 UNK         0.1007 
     66 C          31.5071    1.4301   -5.0601 C.2       11 UNK         0.5703 
     67 N          31.2882    2.6590   -5.5177 N.am      11 UNK        -0.7361 
     68 O          31.2321    1.1580   -3.8955 O.2       11 UNK        -0.4986 
     69 C69        31.1744   -0.8486   -6.2054 C.3       12 UNK        -0.0947 
     70 S70        31.9224   -2.1557   -7.2393 S.3       12 UNK        -0.2240 
     71 C71        32.3778   -3.4182   -6.0021 C.3       12 UNK         0.0194 
     72 H72        23.6695   -4.7349    1.9207 H         1 UNK         0.0906 
     73 H73        23.2798   -3.1358    1.2808 H         1 UNK         0.0906 
     74 H74        23.5194   -4.4925    0.1791 H         1 UNK         0.0906 
     75 H75        25.4916   -4.3766   -0.8521 H         1 UNK         0.3140 
     76 H76        27.9350   -3.6737    0.6051 H         1 UNK         0.1085 
     77 H77        27.8679   -4.4353   -2.3426 H         1 UNK         0.0836 
     78 H78        27.6157   -5.6646   -1.1340 H         1 UNK         0.0836 
     79 H79        29.6785   -6.9775   -2.1362 H         1 UNK         0.0731 
     80 H80        31.3329   -6.4321   -2.0456 H         1 UNK         0.0731 
     81 H81        32.1358   -4.5515   -3.5498 H         1 UNK         0.1312 
     82 H82        30.0187   -4.1459   -7.2635 H         1 UNK         0.1406 
     83 H83        28.2930   -6.3866   -4.0532 H         1 UNK         0.1631 
     84 H84        27.4249   -6.5468   -6.4242 H         1 UNK         0.0717 
     85 H85        28.0128   -5.4491   -7.6482 H         1 UNK         0.0717 
     86 H86        28.0489   -2.5475   -6.0214 H         1 UNK         0.0934 
     87 H87        27.6246   -2.9246   -7.6764 H         1 UNK         0.0934 
     88 H88        25.3727   -1.8747   -7.3422 H         1 UNK         0.0739 
     89 H89        26.3740   -0.9779   -4.6788 H         1 UNK         0.3093 
     90 H90        23.0871   -0.6146   -3.4816 H         1 UNK         0.0818 
     91 H91        23.2668   -3.0226   -2.9335 H         1 UNK         0.0819 
     92 H92        24.9826   -2.8537   -2.5941 H         1 UNK         0.0819 
     93 H93        23.7919   -2.0680   -1.5539 H         1 UNK         0.0819 
     94 H94        25.6308   -0.4352   -2.1719 H         1 UNK         0.3041 
     95 H95        26.8573    2.4322   -3.7574 H         1 UNK         0.0784 
     96 H96        25.1681    3.6697   -2.3789 H         1 UNK         0.0793 
     97 H97        25.5055    2.6187   -1.0102 H         1 UNK         0.0793 
     98 H98        26.7545    3.7009   -1.6299 H         1 UNK         0.0793 
     99 H99        27.6669    1.3938   -1.2856 H         1 UNK         0.3024 
    100 H100       30.0557   -0.7410   -2.5124 H         1 UNK         0.1171 
    101 H101       30.4818   -0.1588   -0.1699 H         1 UNK         0.0786 
    102 H102       29.9994    1.2927   -1.0225 H         1 UNK         0.0786 
    103 H103       28.8553    0.4707    0.0431 H         1 UNK         0.0786 
    104 H104       29.4055   -2.6057   -1.4732 H         1 UNK         0.2977 
    105 H105       25.4240    0.8484   -6.3205 H         1 UNK         0.3127 
    106 H106       27.6683    2.3275   -7.0655 H         1 UNK         0.0770 
    107 H107       24.7042    3.1060   -7.0631 H         1 UNK         0.0814 
    108 H108       26.0226    4.2566   -7.2365 H         1 UNK         0.0814 
    109 H109       25.8677    3.3360   -5.7579 H         1 UNK         0.0814 
    110 H110       25.3185    0.8822   -9.2013 H         1 UNK         0.2983 
    111 H111       25.7536    2.3814  -11.5719 H         1 UNK         0.0947 
    112 H112       24.8112    0.3476  -12.6889 H         1 UNK         0.0806 
    113 H113       23.8610    0.7953  -11.2833 H         1 UNK         0.0806 
    114 H114       24.9807   -0.5662  -11.1966 H         1 UNK         0.0806 
    115 H115       27.8557    0.0759   -9.9614 H         1 UNK         0.3000 
    116 H116       29.5480   -0.4449  -12.2929 H         1 UNK         0.0850 
    117 H117       30.9732   -1.6039  -10.6263 H         1 UNK         0.0810 
    118 H118       29.3025   -2.1117  -10.4366 H         1 UNK         0.0810 
    119 H119       30.0103   -0.9604   -9.3065 H         1 UNK         0.0810 
    120 H120       29.1290    2.2216  -10.2121 H         1 UNK         0.3040 
    121 H121       30.0931    4.1190   -9.8193 H         1 UNK         0.0766 
    122 H122       32.0125    3.5278  -12.1335 H         1 UNK         0.0812 
    123 H123       31.7483    5.0925  -11.3827 H         1 UNK         0.0812 
    124 H124       30.4406    4.3132  -12.2579 H         1 UNK         0.0812 
    125 H125       32.7827    1.8561  -10.4316 H         1 UNK         0.3205 
    126 H126       34.6586    3.0512   -8.6443 H         1 UNK         0.0754 
    127 H127       35.9311    0.9200   -8.9986 H         1 UNK         0.0769 
    128 H128       35.3268    1.5632  -10.5166 H         1 UNK         0.0769 
    129 H129       34.5186    0.1931   -9.7545 H         1 UNK         0.0769 
    130 H130       32.0802    0.7367   -8.0592 H         1 UNK         0.2981 
    131 H131       32.9934   -0.0453   -5.4186 H         1 UNK         0.0541 
    132 H132       30.8904    3.3445   -4.8966 H         1 UNK         0.3459 
    133 H133       31.5472    2.9267   -6.4591 H         1 UNK         0.3459 
    134 H134       30.8589   -1.2801   -5.2534 H         1 UNK         0.0612 
    135 H135       30.2618   -0.5099   -6.6992 H         1 UNK         0.0612 
    136 H136       32.9047   -2.9257   -5.1833 H         1 UNK         0.0624 
    137 H137       33.0910   -4.1035   -6.4613 H         1 UNK         0.0624 
@<TRIPOS>BOND
     1    1    2 1    
     2    1   72 1    
     3    1   73 1    
     4    1   74 1    
     5    2    3 2    
     6    2    4 am   BACKBONE|DICT|INTERRES
     7    4    5 1    
     8    4   75 1    
     9    5    6 1    
    10    5   35 1    
    11    5   76 1    
    12    6    7 1    
    13    6   77 1    
    14    6   78 1    
    15    7    8 1    
    16    8    9 1    
    17    8   79 1    
    18    8   80 1    
    19    9   10 ar   
    20    9   14 ar   
    21   10   11 ar   
    22   10   81 1    
    23   11   12 ar   
    24   11   71 1    
    25   12   13 ar   
    26   12   82 1    
    27   13   14 ar   
    28   13   15 1    
    29   14   83 1    
    30   15   16 1    
    31   15   84 1    
    32   15   85 1    
    33   16   17 1    
    34   17   18 1    
    35   17   86 1    
    36   17   87 1    
    37   18   19 1    
    38   18   37 1    
    39   18   88 1    
    40   19   20 am   BACKBONE|DICT|INTERRES
    41   19   89 1    
    42   20   21 2    
    43   20   22 1    
    44   22   23 1    
    45   22   24 1    
    46   22   90 1    
    47   23   91 1    
    48   23   92 1    
    49   23   93 1    
    50   24   25 am   BACKBONE|DICT|INTERRES
    51   24   94 1    
    52   25   26 2    
    53   25   27 1    
    54   27   28 1    
    55   27   29 1    
    56   27   95 1    
    57   28   96 1    
    58   28   97 1    
    59   28   98 1    
    60   29   30 am   BACKBONE|DICT|INTERRES
    61   29   99 1    
    62   30   31 2    
    63   30   32 1    
    64   32   33 1    
    65   32   34 1    
    66   32  100 1    
    67   33  101 1    
    68   33  102 1    
    69   33  103 1    
    70   34   35 am   BACKBONE|DICT|INTERRES
    71   34  104 1    
    72   35   36 2    
    73   37   38 2    
    74   37   39 am   BACKBONE|DICT|INTERRES
    75   39   40 1    
    76   39  105 1    
    77   40   41 1    
    78   40   42 1    
    79   40  106 1    
    80   41  107 1    
    81   41  108 1    
    82   41  109 1    
    83   42   43 2    
    84   42   44 am   BACKBONE|DICT|INTERRES
    85   44   45 1    
    86   44  110 1    
    87   45   46 1    
    88   45   47 1    
    89   45  111 1    
    90   46  112 1    
    91   46  113 1    
    92   46  114 1    
    93   47   48 2    
    94   47   49 am   BACKBONE|DICT|INTERRES
    95   49   50 1    
    96   49  115 1    
    97   50   51 1    
    98   50   52 1    
    99   50  116 1    
   100   51  117 1    
   101   51  118 1    
   102   51  119 1    
   103   52   53 2    
   104   52   54 am   BACKBONE|DICT|INTERRES
   105   54   55 1    
   106   54  120 1    
   107   55   56 1    
   108   55   57 1    
   109   55  121 1    
   110   56  122 1    
   111   56  123 1    
   112   56  124 1    
   113   57   58 2    
   114   57   59 am   BACKBONE|DICT|INTERRES
   115   59   60 1    
   116   59  125 1    
   117   60   61 1    
   118   60   62 1    
   119   60  126 1    
   120   61  127 1    
   121   61  128 1    
   122   61  129 1    
   123   62   63 2    
   124   62   64 am   BACKBONE|DICT|INTERRES
   125   64   65 1    
   126   64  130 1    
   127   65   66 1    
   128   65   69 1    
   129   65  131 1    
   130   66   67 am   BACKBONE|DICT|INTERRES
   131   66   68 2    
   132   67  132 1    
   133   67  133 1    
   134   69   70 1    
   135   69  134 1    
   136   69  135 1    
   137   70   71 1    
   138   71  136 1    
   139   71  137 1    
@<TRIPOS>SUBSTRUCTURE
     1 UNK         1 GROUP             0       ****    0 ROOT    
