@<TRIPOS>MOLECULE
3R137
137   139    1
SMALL
USER_CHARGES


@<TRIPOS>ATOM
      1 CA         27.6539   -7.0029    0.4241 C.3       0 UNK        -0.2020 
      2 C          27.4645   -5.5353    0.0726 C.2       0 UNK         0.4855 
      3 O          27.6779   -5.1606   -1.0783 O.2       0 UNK        -0.5197 
      4 N          27.0497   -4.7225    1.0550 N.am      1 UNK        -0.4892 
      5 CA         26.8145   -3.2655    1.0579 C.3       1 UNK         0.0835 
      6 C6         28.1184   -2.4132    1.0619 C.3       12 UNK        -0.0855 
      7 S7         28.8337   -1.9937   -0.5645 S.3       12 UNK        -0.2931 
      8 C8         30.3083   -3.0582   -0.6144 C.3       12 UNK         0.0378 
      9 C9         30.9030   -3.0507   -2.0121 C.ar      12 UNK        -0.0802 
     10 C10        32.0056   -2.2455   -2.3144 C.ar      12 UNK        -0.0944 
     11 C11        32.4969   -2.1858   -3.6219 C.ar      12 UNK        -0.0787 
     12 C12        31.8856   -2.9433   -4.6257 C.ar      12 UNK        -0.0862 
     13 C13        30.7733   -3.7393   -4.3360 C.ar      12 UNK        -0.0733 
     14 C14        30.3033   -3.8081   -3.0223 C.ar      12 UNK        -0.0832 
     15 C15        30.0284   -4.4557   -5.4565 C.3       12 UNK         0.0240 
     16 S16        28.3200   -3.8346   -5.6566 S.3       12 UNK        -0.2522 
     17 C17        28.5690   -2.0257   -5.6689 C.3       12 UNK        -0.0967 
     18 CA         27.7658   -1.3104   -6.7762 C.3       5 UNK         0.0660 
     19 N          26.3182   -1.4269   -6.5813 N.am      5 UNK        -0.4015 
     20 C          25.3997   -1.0452   -7.4814 C.2       4 UNK         0.4946 
     21 O          25.6762   -0.5882   -8.5898 O.2       4 UNK        -0.5353 
     22 CA         23.9225   -1.1387   -7.0623 C.3       4 UNK         0.0277 
     23 CB         23.3671   -2.5401   -7.3616 C.3       4 UNK        -0.1981 
     24 N          23.6945   -0.8124   -5.6525 N.am      4 UNK        -0.4209 
     25 C          24.0180    0.3487   -5.0630 C.2       3 UNK         0.4942 
     26 O          24.5013    1.3071   -5.6651 O.2       3 UNK        -0.5208 
     27 CA         23.8068    0.4486   -3.5412 C.3       3 UNK         0.0250 
     28 CB         22.5090    1.2104   -3.2299 C.3       3 UNK        -0.1990 
     29 N          23.7856   -0.8515   -2.8589 N.am      3 UNK        -0.4232 
     30 C          24.8306   -1.6875   -2.7756 C.2       2 UNK         0.4993 
     31 O          25.9345   -1.4551   -3.2735 O.2       2 UNK        -0.5286 
     32 CA         24.5689   -3.0416   -2.0983 C.3       2 UNK         0.0209 
     33 CB         24.5482   -4.1672   -3.1464 C.3       2 UNK        -0.1931 
     34 N          25.5766   -3.3536   -1.0874 N.am      2 UNK        -0.4546 
     35 C          25.7126   -2.7478    0.0971 C.2       1 UNK         0.5154 
     36 O          24.9709   -1.8379    0.4739 O.2       1 UNK        -0.5181 
     37 C          28.2099    0.1607   -6.8726 C.2       5 UNK         0.5014 
     38 O          29.0362    0.4850   -7.7264 O.2       5 UNK        -0.5248 
     39 N          27.6480    1.0225   -6.0125 N.am      6 UNK        -0.4434 
     40 CA         27.9061    2.4626   -6.0061 C.3       6 UNK         0.0363 
     41 CB         27.3755    3.0853   -4.7048 C.3       6 UNK        -0.1936 
     42 C          27.3071    3.1584   -7.2376 C.2       6 UNK         0.5081 
     43 O          27.9723    4.0073   -7.8295 O.2       6 UNK        -0.5248 
     44 N          26.0877    2.7580   -7.6268 N.am      7 UNK        -0.4718 
     45 CA         25.3951    3.2334   -8.8284 C.3       7 UNK         0.0273 
     46 CB         23.9547    2.6980   -8.8382 C.3       7 UNK        -0.1935 
     47 C          26.1260    2.8597  -10.1302 C.2       7 UNK         0.5018 
     48 O          26.2239    3.6954  -11.0294 O.2       7 UNK        -0.5186 
     49 N          26.6504    1.6277  -10.1961 N.am      8 UNK        -0.4240 
     50 CA         27.4754    1.1316  -11.3016 C.3       8 UNK         0.0235 
     51 CB         27.5099   -0.4050  -11.2456 C.3       8 UNK        -0.2000 
     52 C          28.9123    1.6872  -11.3020 C.2       8 UNK         0.4941 
     53 O          29.5926    1.5612  -12.3210 O.2       8 UNK        -0.5273 
     54 N          29.3554    2.2511  -10.1669 N.am      9 UNK        -0.4262 
     55 CA         30.7226    2.6874   -9.8558 C.3       9 UNK         0.0264 
     56 CB         31.1409    3.8858  -10.7334 C.3       9 UNK        -0.1955 
     57 C          31.7264    1.5176   -9.9022 C.2       9 UNK         0.5031 
     58 O          32.8392    1.6687  -10.4124 O.2       9 UNK        -0.5390 
     59 N          31.3085    0.3643   -9.3596 N.am      10 UNK        -0.4204 
     60 CA         32.0381   -0.9079   -9.3836 C.3       10 UNK         0.0237 
     61 CB         31.1271   -2.0200   -8.8380 C.3       10 UNK        -0.1985 
     62 C          33.3726   -0.8853   -8.6190 C.2       10 UNK         0.4970 
     63 O          34.2499   -1.6954   -8.9204 O.2       10 UNK        -0.4914 
     64 N          33.5035    0.0346   -7.6560 N.am      11 UNK        -0.4285 
     65 CA         34.7269    0.2673   -6.8755 C.3       11 UNK         0.1007 
     66 C          35.8550    1.0007   -7.6600 C.2       11 UNK         0.5703 
     67 N          35.6058    1.5358   -8.8512 N.am      11 UNK        -0.7361 
     68 O          36.9826    1.0794   -7.1784 O.2       11 UNK        -0.4986 
     69 C69        34.4380    0.9747   -5.5206 C.3       12 UNK        -0.0947 
     70 S70        32.9942    0.3110   -4.6236 S.3       12 UNK        -0.2240 
     71 C71        33.6461   -1.2571   -3.9744 C.3       12 UNK         0.0194 
     72 H72        28.6831   -7.3035    0.2296 H         1 UNK         0.0906 
     73 H73        26.9976   -7.6219   -0.1871 H         1 UNK         0.0906 
     74 H74        27.4338   -7.2065    1.4719 H         1 UNK         0.0906 
     75 H75        26.8635   -5.1529    1.9509 H         1 UNK         0.3140 
     76 H76        26.3764   -3.1094    2.0457 H         1 UNK         0.1085 
     77 H77        28.8772   -2.8925    1.6824 H         1 UNK         0.0836 
     78 H78        27.9109   -1.4626    1.5566 H         1 UNK         0.0836 
     79 H79        31.0356   -2.7083    0.1198 H         1 UNK         0.0731 
     80 H80        30.0463   -4.0781   -0.3321 H         1 UNK         0.0731 
     81 H81        32.4580   -1.6388   -1.5417 H         1 UNK         0.1312 
     82 H82        32.2474   -2.8696   -5.6425 H         1 UNK         0.1406 
     83 H83        29.4269   -4.4016   -2.7985 H         1 UNK         0.1631 
     84 H84        29.9969   -5.5251   -5.2443 H         1 UNK         0.0717 
     85 H85        30.5548   -4.3436   -6.4057 H         1 UNK         0.0717 
     86 H86        28.3075   -1.6396   -4.6812 H         1 UNK         0.0934 
     87 H87        29.6308   -1.8142   -5.7968 H         1 UNK         0.0934 
     88 H88        28.0079   -1.7807   -7.7319 H         1 UNK         0.0739 
     89 H89        26.0157   -1.7722   -5.6802 H         1 UNK         0.3093 
     90 H90        23.3648   -0.4148   -7.6593 H         1 UNK         0.0818 
     91 H91        23.5078   -2.7976   -8.4125 H         1 UNK         0.0819 
     92 H92        23.8642   -3.3092   -6.7688 H         1 UNK         0.0819 
     93 H93        22.2976   -2.5962   -7.1579 H         1 UNK         0.0819 
     94 H94        23.2860   -1.5350   -5.0790 H         1 UNK         0.3041 
     95 H95        24.6449    1.0214   -3.1380 H         1 UNK         0.0784 
     96 H96        22.5109    2.1932   -3.7040 H         1 UNK         0.0793 
     97 H97        21.6291    0.6765   -3.5912 H         1 UNK         0.0793 
     98 H98        22.3898    1.3711   -2.1582 H         1 UNK         0.0793 
     99 H99        22.9116   -1.1166   -2.4268 H         1 UNK         0.3024 
    100 H100       23.5961   -3.0131   -1.6022 H         1 UNK         0.1171 
    101 H101       25.5088   -4.2584   -3.6566 H         1 UNK         0.0786 
    102 H102       24.3215   -5.1305   -2.6891 H         1 UNK         0.0786 
    103 H103       23.7891   -3.9836   -3.9078 H         1 UNK         0.0786 
    104 H104       26.2842   -4.0467   -1.3258 H         1 UNK         0.2977 
    105 H105       26.9480    0.6819   -5.3686 H         1 UNK         0.3127 
    106 H106       28.9881    2.6104   -6.0343 H         1 UNK         0.0770 
    107 H107       27.5991    4.1522   -4.6672 H         1 UNK         0.0814 
    108 H108       26.2947    2.9775   -4.6107 H         1 UNK         0.0814 
    109 H109       27.8362    2.6274   -3.8293 H         1 UNK         0.0814 
    110 H110       25.5874    2.0941   -7.0401 H         1 UNK         0.2983 
    111 H111       25.3539    4.3235   -8.7751 H         1 UNK         0.0947 
    112 H112       23.9297    1.6101   -8.9003 H         1 UNK         0.0806 
    113 H113       23.4004    3.0863   -9.6937 H         1 UNK         0.0806 
    114 H114       23.4145    2.9940   -7.9386 H         1 UNK         0.0806 
    115 H115       26.4516    0.9690   -9.4464 H         1 UNK         0.3000 
    116 H116       27.0084    1.4308  -12.2424 H         1 UNK         0.0850 
    117 H117       28.0896   -0.8166  -12.0729 H         1 UNK         0.0810 
    118 H118       26.5068   -0.8270  -11.3115 H         1 UNK         0.0810 
    119 H119       27.9623   -0.7623  -10.3194 H         1 UNK         0.0810 
    120 H120       28.7095    2.2869   -9.3886 H         1 UNK         0.3040 
    121 H121       30.7013    3.0293   -8.8199 H         1 UNK         0.0766 
    122 H122       32.1027    4.2869  -10.4116 H         1 UNK         0.0812 
    123 H123       30.4140    4.6954  -10.6692 H         1 UNK         0.0812 
    124 H124       31.2418    3.6063  -11.7825 H         1 UNK         0.0812 
    125 H125       30.4031    0.3625   -8.8884 H         1 UNK         0.3205 
    126 H126       32.2669   -1.1325  -10.4273 H         1 UNK         0.0754 
    127 H127       31.6178   -2.9926   -8.8953 H         1 UNK         0.0769 
    128 H128       30.1998   -2.0908   -9.4068 H         1 UNK         0.0769 
    129 H129       30.8686   -1.8467   -7.7938 H         1 UNK         0.0769 
    130 H130       32.7290    0.6514   -7.4647 H         1 UNK         0.2981 
    131 H131       35.1390   -0.7149   -6.6392 H         1 UNK         0.0541 
    132 H132       36.3500    2.0029   -9.3443 H         1 UNK         0.3459 
    133 H133       34.6849    1.4786   -9.2684 H         1 UNK         0.3459 
    134 H134       34.2488    2.0370   -5.6851 H         1 UNK         0.0612 
    135 H135       35.3102    0.9196   -4.8665 H         1 UNK         0.0612 
    136 H136       34.2711   -1.0592   -3.1024 H         1 UNK         0.0624 
    137 H137       34.2853   -1.7369   -4.7160 H         1 UNK         0.0624 
@<TRIPOS>BOND
     1    1    2 1    
     2    1   72 1    
     3    1   73 1    
     4    1   74 1    
     5    2    3 2    
     6    2    4 am   BACKBONE|DICT|INTERRES
     7    4    5 1    
     8    4   75 1    
     9    5    6 1    
    10    5   35 1    
    11    5   76 1    
    12    6    7 1    
    13    6   77 1    
    14    6   78 1    
    15    7    8 1    
    16    8    9 1    
    17    8   79 1    
    18    8   80 1    
    19    9   10 ar   
    20    9   14 ar   
    21   10   11 ar   
    22   10   81 1    
    23   11   12 ar   
    24   11   71 1    
    25   12   13 ar   
    26   12   82 1    
    27   13   14 ar   
    28   13   15 1    
    29   14   83 1    
    30   15   16 1    
    31   15   84 1    
    32   15   85 1    
    33   16   17 1    
    34   17   18 1    
    35   17   86 1    
    36   17   87 1    
    37   18   19 1    
    38   18   37 1    
    39   18   88 1    
    40   19   20 am   BACKBONE|DICT|INTERRES
    41   19   89 1    
    42   20   21 2    
    43   20   22 1    
    44   22   23 1    
    45   22   24 1    
    46   22   90 1    
    47   23   91 1    
    48   23   92 1    
    49   23   93 1    
    50   24   25 am   BACKBONE|DICT|INTERRES
    51   24   94 1    
    52   25   26 2    
    53   25   27 1    
    54   27   28 1    
    55   27   29 1    
    56   27   95 1    
    57   28   96 1    
    58   28   97 1    
    59   28   98 1    
    60   29   30 am   BACKBONE|DICT|INTERRES
    61   29   99 1    
    62   30   31 2    
    63   30   32 1    
    64   32   33 1    
    65   32   34 1    
    66   32  100 1    
    67   33  101 1    
    68   33  102 1    
    69   33  103 1    
    70   34   35 am   BACKBONE|DICT|INTERRES
    71   34  104 1    
    72   35   36 2    
    73   37   38 2    
    74   37   39 am   BACKBONE|DICT|INTERRES
    75   39   40 1    
    76   39  105 1    
    77   40   41 1    
    78   40   42 1    
    79   40  106 1    
    80   41  107 1    
    81   41  108 1    
    82   41  109 1    
    83   42   43 2    
    84   42   44 am   BACKBONE|DICT|INTERRES
    85   44   45 1    
    86   44  110 1    
    87   45   46 1    
    88   45   47 1    
    89   45  111 1    
    90   46  112 1    
    91   46  113 1    
    92   46  114 1    
    93   47   48 2    
    94   47   49 am   BACKBONE|DICT|INTERRES
    95   49   50 1    
    96   49  115 1    
    97   50   51 1    
    98   50   52 1    
    99   50  116 1    
   100   51  117 1    
   101   51  118 1    
   102   51  119 1    
   103   52   53 2    
   104   52   54 am   BACKBONE|DICT|INTERRES
   105   54   55 1    
   106   54  120 1    
   107   55   56 1    
   108   55   57 1    
   109   55  121 1    
   110   56  122 1    
   111   56  123 1    
   112   56  124 1    
   113   57   58 2    
   114   57   59 am   BACKBONE|DICT|INTERRES
   115   59   60 1    
   116   59  125 1    
   117   60   61 1    
   118   60   62 1    
   119   60  126 1    
   120   61  127 1    
   121   61  128 1    
   122   61  129 1    
   123   62   63 2    
   124   62   64 am   BACKBONE|DICT|INTERRES
   125   64   65 1    
   126   64  130 1    
   127   65   66 1    
   128   65   69 1    
   129   65  131 1    
   130   66   67 am   BACKBONE|DICT|INTERRES
   131   66   68 2    
   132   67  132 1    
   133   67  133 1    
   134   69   70 1    
   135   69  134 1    
   136   69  135 1    
   137   70   71 1    
   138   71  136 1    
   139   71  137 1    
@<TRIPOS>SUBSTRUCTURE
     1 UNK         1 GROUP             0       ****    0 ROOT    
