@<TRIPOS>MOLECULE
3R137
137   139    1
SMALL
USER_CHARGES


@<TRIPOS>ATOM
      1 CA         26.8925   -5.4842   -7.3772 C.3       0 UNK        -0.2020 
      2 C          26.4435   -5.1799   -5.9561 C.2       0 UNK         0.4855 
      3 O          25.2827   -4.8240   -5.7504 O.2       0 UNK        -0.5197 
      4 N          27.3609   -5.3024   -4.9843 N.am      1 UNK        -0.4892 
      5 CA         27.1797   -5.0168   -3.5531 C.3       1 UNK         0.0835 
      6 C6         28.5167   -5.2259   -2.7920 C.3       12 UNK        -0.0855 
      7 S7         28.4001   -4.9436   -0.9897 S.3       12 UNK        -0.2931 
      8 C8         30.1497   -4.7154   -0.5311 C.3       12 UNK         0.0378 
      9 C9         30.7673   -3.4448   -1.1073 C.ar      12 UNK        -0.0802 
     10 C10        31.7565   -3.5312   -2.0929 C.ar      12 UNK        -0.0944 
     11 C11        32.3880   -2.3800   -2.5728 C.ar      12 UNK        -0.0787 
     12 C12        31.9966   -1.1303   -2.0832 C.ar      12 UNK        -0.0862 
     13 C13        31.0048   -1.0225   -1.1009 C.ar      12 UNK        -0.0733 
     14 C14        30.4017   -2.1883   -0.6103 C.ar      12 UNK        -0.0832 
     15 C15        30.6662    0.3577   -0.5344 C.3       12 UNK         0.0240 
     16 S16        28.8908    0.6766   -0.2225 S.3       12 UNK        -0.2522 
     17 C17        28.0500    0.1301   -1.7456 C.3       12 UNK        -0.0967 
     18 CA         28.5847    0.7483   -3.0633 C.3       5 UNK         0.0660 
     19 N          28.4402   -0.2016   -4.1666 N.am      5 UNK        -0.4015 
     20 C          28.9265   -0.0548   -5.4029 C.2       4 UNK         0.4946 
     21 O          29.5797    0.9174   -5.7706 O.2       4 UNK        -0.5353 
     22 CA         28.5612   -1.1451   -6.4181 C.3       4 UNK         0.0277 
     23 CB         29.3929   -2.4237   -6.2263 C.3       4 UNK        -0.1981 
     24 N          27.1399   -1.4726   -6.3339 N.am      4 UNK        -0.4209 
     25 C          26.1619   -0.6776   -6.7838 C.2       3 UNK         0.4942 
     26 O          26.3709    0.3750   -7.3859 O.2       3 UNK        -0.5208 
     27 CA         24.7179   -1.1237   -6.5079 C.3       3 UNK         0.0250 
     28 CB         24.1997   -1.9931   -7.6637 C.3       3 UNK        -0.1990 
     29 N          24.5833   -1.8487   -5.2397 N.am      3 UNK        -0.4232 
     30 C          24.7033   -1.2688   -4.0352 C.2       2 UNK         0.4993 
     31 O          24.9111   -0.0671   -3.8758 O.2       2 UNK        -0.5286 
     32 CA         24.6540   -2.1858   -2.7998 C.3       2 UNK         0.0209 
     33 CB         23.2000   -2.4385   -2.3716 C.3       2 UNK        -0.1931 
     34 N          25.3444   -3.4674   -2.9828 N.am      2 UNK        -0.4546 
     35 C          26.6281   -3.5925   -3.3471 C.2       1 UNK         0.5154 
     36 O          27.3636   -2.6342   -3.5757 O.2       1 UNK        -0.5181 
     37 C          27.9514    2.1230   -3.3772 C.2       5 UNK         0.5014 
     38 O          28.5209    3.1522   -3.0117 O.2       5 UNK        -0.5248 
     39 N          26.8220    2.1201   -4.1022 N.am      6 UNK        -0.4434 
     40 CA         26.1684    3.3068   -4.6646 C.3       6 UNK         0.0363 
     41 CB         24.7142    2.9502   -5.0179 C.3       6 UNK        -0.1936 
     42 C          26.8838    3.9045   -5.8960 C.2       6 UNK         0.5081 
     43 O          26.4461    4.9489   -6.3797 O.2       6 UNK        -0.5248 
     44 N          27.9424    3.2461   -6.3927 N.am      7 UNK        -0.4718 
     45 CA         28.7591    3.6014   -7.5602 C.3       7 UNK         0.0273 
     46 CB         29.4739    4.9543   -7.3543 C.3       7 UNK        -0.1935 
     47 C          28.0093    3.5110   -8.9036 C.2       7 UNK         0.5018 
     48 O          28.3990    4.1814   -9.8619 O.2       7 UNK        -0.5186 
     49 N          26.9650    2.6734   -8.9665 N.am      8 UNK        -0.4240 
     50 CA         26.2559    2.3322  -10.2005 C.3       8 UNK         0.0235 
     51 CB         24.7822    2.0244   -9.8851 C.3       8 UNK        -0.2000 
     52 C          26.9250    1.1440  -10.9108 C.2       8 UNK         0.4941 
     53 O          26.9669    1.1309  -12.1421 O.2       8 UNK        -0.5273 
     54 N          27.4329    0.1793  -10.1292 N.am      9 UNK        -0.4262 
     55 CA         28.1789   -0.9880  -10.6054 C.3       9 UNK         0.0264 
     56 CB         27.6337   -2.2654   -9.9315 C.3       9 UNK        -0.1955 
     57 C          29.6999   -0.7747  -10.4449 C.2       9 UNK         0.5031 
     58 O          30.1820    0.3368  -10.6670 O.2       9 UNK        -0.5390 
     59 N          30.4350   -1.8535  -10.1375 N.am      10 UNK        -0.4204 
     60 CA         31.8962   -1.9486  -10.2361 C.3       10 UNK         0.0237 
     61 CB         32.3208   -3.4124  -10.0262 C.3       10 UNK        -0.1985 
     62 C          32.7055   -1.0227   -9.3095 C.2       10 UNK         0.4970 
     63 O          33.6885   -0.4378   -9.7682 O.2       10 UNK        -0.4914 
     64 N          32.3274   -0.9512   -8.0272 N.am      11 UNK        -0.4285 
     65 CA         33.0550   -0.1911   -6.9939 C.3       11 UNK         0.1007 
     66 C          32.9063    1.3517   -7.1404 C.2       11 UNK         0.5703 
     67 N          33.7411    2.1189   -6.4508 N.am      11 UNK        -0.7361 
     68 O          32.0530    1.8650   -7.8604 O.2       11 UNK        -0.4986 
     69 C69        32.7186   -0.6696   -5.5530 C.3       12 UNK        -0.0947 
     70 S70        33.0101   -2.4525   -5.2944 S.3       12 UNK        -0.2240 
     71 C71        33.5473   -2.4975   -3.5567 C.3       12 UNK         0.0194 
     72 H72        26.7556   -4.6078   -8.0096 H         1 UNK         0.0906 
     73 H73        27.9418   -5.7750   -7.4228 H         1 UNK         0.0906 
     74 H74        26.2970   -6.2976   -7.7909 H         1 UNK         0.0906 
     75 H75        28.2923   -5.5969   -5.2406 H         1 UNK         0.3140 
     76 H76        26.4505   -5.7311   -3.1657 H         1 UNK         0.1085 
     77 H77        29.2844   -4.5686   -3.2047 H         1 UNK         0.0836 
     78 H78        28.8769   -6.2442   -2.9463 H         1 UNK         0.0836 
     79 H79        30.7143   -5.5963   -0.8410 H         1 UNK         0.0731 
     80 H80        30.2219   -4.6801    0.5569 H         1 UNK         0.0731 
     81 H81        32.0630   -4.5000   -2.4635 H         1 UNK         0.1312 
     82 H82        32.4933   -0.2404   -2.4444 H         1 UNK         0.1406 
     83 H83        29.6531   -2.1211    0.1674 H         1 UNK         0.1631 
     84 H84        31.0471    1.1449   -1.1864 H         1 UNK         0.0717 
     85 H85        31.1997    0.4750    0.4096 H         1 UNK         0.0717 
     86 H86        28.1572   -0.9548   -1.7669 H         1 UNK         0.0934 
     87 H87        26.9770    0.3015   -1.6378 H         1 UNK         0.0934 
     88 H88        29.6579    0.9148   -2.9764 H         1 UNK         0.0739 
     89 H89        27.9529   -1.0720   -3.9478 H         1 UNK         0.3093 
     90 H90        28.7707   -0.7472   -7.4126 H         1 UNK         0.0818 
     91 H91        29.3790   -2.7790   -5.1958 H         1 UNK         0.0819 
     92 H92        29.0406   -3.2339   -6.8637 H         1 UNK         0.0819 
     93 H93        30.4318   -2.2487   -6.4869 H         1 UNK         0.0819 
     94 H94        26.8893   -2.2757   -5.7738 H         1 UNK         0.3041 
     95 H95        24.1005   -0.2245   -6.4548 H         1 UNK         0.0784 
     96 H96        24.7698   -2.9171   -7.7647 H         1 UNK         0.0793 
     97 H97        23.1528   -2.2602   -7.5194 H         1 UNK         0.0793 
     98 H98        24.2698   -1.4613   -8.6138 H         1 UNK         0.0793 
     99 H99        24.4767   -2.8565   -5.2906 H         1 UNK         0.3024 
    100 H100       25.1620   -1.6577   -1.9898 H         1 UNK         0.1171 
    101 H101       23.1526   -2.9949   -1.4353 H         1 UNK         0.0786 
    102 H102       22.6708   -1.4974   -2.2137 H         1 UNK         0.0786 
    103 H103       22.6478   -3.0007   -3.1258 H         1 UNK         0.0786 
    104 H104       24.7907   -4.3028   -2.8574 H         1 UNK         0.2977 
    105 H105       26.3591    1.2324   -4.2772 H         1 UNK         0.3127 
    106 H106       26.1513    4.0826   -3.8964 H         1 UNK         0.0770 
    107 H107       24.6668    2.1775   -5.7861 H         1 UNK         0.0814 
    108 H108       24.1750    3.8196   -5.3962 H         1 UNK         0.0814 
    109 H109       24.1700    2.5898   -4.1449 H         1 UNK         0.0814 
    110 H110       28.2414    2.3945   -5.9278 H         1 UNK         0.2983 
    111 H111       29.5352    2.8371   -7.6174 H         1 UNK         0.0947 
    112 H112       30.2107    5.1287   -8.1393 H         1 UNK         0.0806 
    113 H113       30.0061    4.9794   -6.4035 H         1 UNK         0.0806 
    114 H114       28.7753    5.7910   -7.3735 H         1 UNK         0.0806 
    115 H115       26.7305    2.1219   -8.1457 H         1 UNK         0.3000 
    116 H116       26.2797    3.1866  -10.8806 H         1 UNK         0.0850 
    117 H117       24.2253    1.8197  -10.8004 H         1 UNK         0.0810 
    118 H118       24.2987    2.8685   -9.3931 H         1 UNK         0.0810 
    119 H119       24.6732    1.1537   -9.2387 H         1 UNK         0.0810 
    120 H120       27.3245    0.2792   -9.1256 H         1 UNK         0.3040 
    121 H121       28.0100   -1.1068  -11.6776 H         1 UNK         0.0766 
    122 H122       26.5474   -2.3151  -10.0114 H         1 UNK         0.0812 
    123 H123       28.0207   -3.1643  -10.4127 H         1 UNK         0.0812 
    124 H124       27.8857   -2.3220   -8.8760 H         1 UNK         0.0812 
    125 H125       29.9460   -2.7217   -9.9764 H         1 UNK         0.3205 
    126 H126       32.1590   -1.6737  -11.2600 H         1 UNK         0.0754 
    127 H127       32.0383   -3.7791   -9.0384 H         1 UNK         0.0769 
    128 H128       33.4026   -3.5226  -10.1162 H         1 UNK         0.0769 
    129 H129       31.8698   -4.0688  -10.7709 H         1 UNK         0.0769 
    130 H130       31.5030   -1.4445   -7.7289 H         1 UNK         0.2981 
    131 H131       34.1154   -0.3994   -7.1517 H         1 UNK         0.0541 
    132 H132       34.4542    1.7205   -5.8608 H         1 UNK         0.3459 
    133 H133       33.6590    3.1201   -6.5309 H         1 UNK         0.3459 
    134 H134       33.3212   -0.1172   -4.8309 H         1 UNK         0.0612 
    135 H135       31.6846   -0.4566   -5.2977 H         1 UNK         0.0612 
    136 H136       34.2832   -1.7128   -3.3756 H         1 UNK         0.0624 
    137 H137       34.0722   -3.4388   -3.3876 H         1 UNK         0.0624 
@<TRIPOS>BOND
     1    1    2 1    
     2    1   72 1    
     3    1   73 1    
     4    1   74 1    
     5    2    3 2    
     6    2    4 am   BACKBONE|DICT|INTERRES
     7    4    5 1    
     8    4   75 1    
     9    5    6 1    
    10    5   35 1    
    11    5   76 1    
    12    6    7 1    
    13    6   77 1    
    14    6   78 1    
    15    7    8 1    
    16    8    9 1    
    17    8   79 1    
    18    8   80 1    
    19    9   10 ar   
    20    9   14 ar   
    21   10   11 ar   
    22   10   81 1    
    23   11   12 ar   
    24   11   71 1    
    25   12   13 ar   
    26   12   82 1    
    27   13   14 ar   
    28   13   15 1    
    29   14   83 1    
    30   15   16 1    
    31   15   84 1    
    32   15   85 1    
    33   16   17 1    
    34   17   18 1    
    35   17   86 1    
    36   17   87 1    
    37   18   19 1    
    38   18   37 1    
    39   18   88 1    
    40   19   20 am   BACKBONE|DICT|INTERRES
    41   19   89 1    
    42   20   21 2    
    43   20   22 1    
    44   22   23 1    
    45   22   24 1    
    46   22   90 1    
    47   23   91 1    
    48   23   92 1    
    49   23   93 1    
    50   24   25 am   BACKBONE|DICT|INTERRES
    51   24   94 1    
    52   25   26 2    
    53   25   27 1    
    54   27   28 1    
    55   27   29 1    
    56   27   95 1    
    57   28   96 1    
    58   28   97 1    
    59   28   98 1    
    60   29   30 am   BACKBONE|DICT|INTERRES
    61   29   99 1    
    62   30   31 2    
    63   30   32 1    
    64   32   33 1    
    65   32   34 1    
    66   32  100 1    
    67   33  101 1    
    68   33  102 1    
    69   33  103 1    
    70   34   35 am   BACKBONE|DICT|INTERRES
    71   34  104 1    
    72   35   36 2    
    73   37   38 2    
    74   37   39 am   BACKBONE|DICT|INTERRES
    75   39   40 1    
    76   39  105 1    
    77   40   41 1    
    78   40   42 1    
    79   40  106 1    
    80   41  107 1    
    81   41  108 1    
    82   41  109 1    
    83   42   43 2    
    84   42   44 am   BACKBONE|DICT|INTERRES
    85   44   45 1    
    86   44  110 1    
    87   45   46 1    
    88   45   47 1    
    89   45  111 1    
    90   46  112 1    
    91   46  113 1    
    92   46  114 1    
    93   47   48 2    
    94   47   49 am   BACKBONE|DICT|INTERRES
    95   49   50 1    
    96   49  115 1    
    97   50   51 1    
    98   50   52 1    
    99   50  116 1    
   100   51  117 1    
   101   51  118 1    
   102   51  119 1    
   103   52   53 2    
   104   52   54 am   BACKBONE|DICT|INTERRES
   105   54   55 1    
   106   54  120 1    
   107   55   56 1    
   108   55   57 1    
   109   55  121 1    
   110   56  122 1    
   111   56  123 1    
   112   56  124 1    
   113   57   58 2    
   114   57   59 am   BACKBONE|DICT|INTERRES
   115   59   60 1    
   116   59  125 1    
   117   60   61 1    
   118   60   62 1    
   119   60  126 1    
   120   61  127 1    
   121   61  128 1    
   122   61  129 1    
   123   62   63 2    
   124   62   64 am   BACKBONE|DICT|INTERRES
   125   64   65 1    
   126   64  130 1    
   127   65   66 1    
   128   65   69 1    
   129   65  131 1    
   130   66   67 am   BACKBONE|DICT|INTERRES
   131   66   68 2    
   132   67  132 1    
   133   67  133 1    
   134   69   70 1    
   135   69  134 1    
   136   69  135 1    
   137   70   71 1    
   138   71  136 1    
   139   71  137 1    
@<TRIPOS>SUBSTRUCTURE
     1 UNK         1 GROUP             0       ****    0 ROOT    
