@<TRIPOS>MOLECULE
3R137
137   139    1
SMALL
USER_CHARGES


@<TRIPOS>ATOM
      1 CA         25.5685   -2.2738   -7.4414 C.3       0 UNK        -0.2020 
      2 C          25.5388   -3.3562   -6.3764 C.2       0 UNK         0.4855 
      3 O          24.7263   -4.2778   -6.4546 O.2       0 UNK        -0.5197 
      4 N          26.4151   -3.2476   -5.3735 N.am      1 UNK        -0.4892 
      5 CA         26.5671   -4.2189   -4.2903 C.3       1 UNK         0.0835 
      6 C6         28.0051   -4.2220   -3.7255 C.3       12 UNK        -0.0855 
      7 S7         29.1829   -4.9484   -4.9141 S.3       12 UNK        -0.2931 
      8 C8         30.5761   -5.3607   -3.8185 C.3       12 UNK         0.0378 
      9 C9         31.2854   -4.1032   -3.3439 C.ar      12 UNK        -0.0802 
     10 C10        32.3196   -3.5531   -4.1035 C.ar      12 UNK        -0.0944 
     11 C11        32.9506   -2.3731   -3.6983 C.ar      12 UNK        -0.0787 
     12 C12        32.5405   -1.7421   -2.5195 C.ar      12 UNK        -0.0862 
     13 C13        31.5124   -2.2924   -1.7458 C.ar      12 UNK        -0.0733 
     14 C14        30.8976   -3.4776   -2.1570 C.ar      12 UNK        -0.0832 
     15 C15        31.0548   -1.6182   -0.4623 C.3       12 UNK         0.0240 
     16 S16        29.4399   -0.8046   -0.6750 S.3       12 UNK        -0.2522 
     17 C17        29.8919    0.6438   -1.6860 C.3       12 UNK        -0.0967 
     18 CA         29.1496    0.6959   -3.0487 C.3       5 UNK         0.0660 
     19 N          27.7008    0.8076   -2.8653 N.am      5 UNK        -0.4015 
     20 C          26.7651    0.3114   -3.6816 C.2       4 UNK         0.4946 
     21 O          26.9921   -0.4486   -4.6286 O.2       4 UNK        -0.5353 
     22 CA         25.3494    0.8546   -3.4582 C.3       4 UNK         0.0277 
     23 CB         25.1987    2.1955   -4.2097 C.3       4 UNK        -0.1981 
     24 N          24.3594   -0.1144   -3.9234 N.am      4 UNK        -0.4209 
     25 C          23.0341   -0.0151   -3.7435 C.2       3 UNK         0.4942 
     26 O          22.4870    0.9108   -3.1430 O.2       3 UNK        -0.5208 
     27 CA         22.1649   -1.1437   -4.3209 C.3       3 UNK         0.0250 
     28 CB         22.0835   -1.0483   -5.8530 C.3       3 UNK        -0.1990 
     29 N          22.6484   -2.4660   -3.9250 N.am      3 UNK        -0.4232 
     30 C          22.5427   -2.9689   -2.6854 C.2       2 UNK         0.4993 
     31 O          21.9558   -2.4048   -1.7613 O.2       2 UNK        -0.5286 
     32 CA         23.2085   -4.3317   -2.4280 C.3       2 UNK         0.0209 
     33 CB         22.1935   -5.4727   -2.6054 C.3       2 UNK        -0.1931 
     34 N          24.3650   -4.5709   -3.2955 N.am      2 UNK        -0.4546 
     35 C          25.5238   -3.9042   -3.2086 C.2       1 UNK         0.5154 
     36 O          25.7590   -3.0446   -2.3577 O.2       1 UNK        -0.5181 
     37 C          29.5935    1.9179   -3.8809 C.2       5 UNK         0.5014 
     38 O          30.2254    2.8288   -3.3414 O.2       5 UNK        -0.5248 
     39 N          29.1778    1.9689   -5.1514 N.am      6 UNK        -0.4434 
     40 CA         29.3157    3.1385   -6.0198 C.3       6 UNK         0.0363 
     41 CB         28.0931    4.0622   -5.8331 C.3       6 UNK        -0.1936 
     42 C          29.5182    2.7019   -7.4756 C.2       6 UNK         0.5081 
     43 O          29.8843    1.5513   -7.7263 O.2       6 UNK        -0.5248 
     44 N          29.2898    3.6270   -8.4186 N.am      7 UNK        -0.4718 
     45 CA         29.4867    3.4619   -9.8651 C.3       7 UNK         0.0273 
     46 CB         29.0991    4.7642  -10.5825 C.3       7 UNK        -0.1935 
     47 C          28.7447    2.2662  -10.4870 C.2       7 UNK         0.5018 
     48 O          29.2603    1.6714  -11.4322 O.2       7 UNK        -0.5186 
     49 N          27.5971    1.8871   -9.9073 N.am      8 UNK        -0.4240 
     50 CA         26.8388    0.6804  -10.2549 C.3       8 UNK         0.0235 
     51 CB         25.5101    0.6812   -9.4812 C.3       8 UNK        -0.2000 
     52 C          27.6111   -0.6328  -10.0105 C.2       8 UNK         0.4941 
     53 O          27.3652   -1.6113  -10.7156 O.2       8 UNK        -0.5273 
     54 N          28.5362   -0.6261   -9.0402 N.am      9 UNK        -0.4262 
     55 CA         29.4664   -1.7190   -8.7434 C.3       9 UNK         0.0264 
     56 CB         29.5720   -1.8664   -7.2134 C.3       9 UNK        -0.1955 
     57 C          30.8623   -1.4717   -9.3521 C.2       9 UNK         0.5031 
     58 O          31.7507   -2.2999   -9.1513 O.2       9 UNK        -0.5390 
     59 N          31.0413   -0.3393  -10.0540 N.am      10 UNK        -0.4204 
     60 CA         32.3043    0.2338  -10.5388 C.3       10 UNK         0.0237 
     61 CB         32.9720   -0.6801  -11.5890 C.3       10 UNK        -0.1985 
     62 C          33.2579    0.6460   -9.3960 C.2       10 UNK         0.4970 
     63 O          34.4763    0.6124   -9.5778 O.2       10 UNK        -0.4914 
     64 N          32.6867    1.0390   -8.2500 N.am      11 UNK        -0.4285 
     65 CA         33.3943    1.3986   -7.0092 C.3       11 UNK         0.1007 
     66 C          33.2697    2.9070   -6.6490 C.2       11 UNK         0.5703 
     67 N          32.7851    3.7646   -7.5401 N.am      11 UNK        -0.7361 
     68 O          33.6452    3.3183   -5.5543 O.2       11 UNK        -0.4986 
     69 C69        32.9644    0.4662   -5.8428 C.3       12 UNK        -0.0947 
     70 S70        33.4947   -1.2493   -6.1647 S.3       12 UNK        -0.2240 
     71 C71        34.0846   -1.8032   -4.5360 C.3       12 UNK         0.0194 
     72 H72        25.9804   -1.3418   -7.0552 H         1 UNK         0.0906 
     73 H73        26.1852   -2.6033   -8.2765 H         1 UNK         0.0906 
     74 H74        24.5675   -2.0772   -7.8224 H         1 UNK         0.0906 
     75 H75        26.9747   -2.4047   -5.2833 H         1 UNK         0.3140 
     76 H76        26.3624   -5.2223   -4.6723 H         1 UNK         0.1085 
     77 H77        28.0485   -4.8035   -2.8025 H         1 UNK         0.0836 
     78 H78        28.3258   -3.2090   -3.4716 H         1 UNK         0.0836 
     79 H79        31.2754   -5.9984   -4.3614 H         1 UNK         0.0731 
     80 H80        30.2233   -5.9495   -2.9703 H         1 UNK         0.0731 
     81 H81        32.6246   -4.0340   -5.0232 H         1 UNK         0.1312 
     82 H82        33.0239   -0.8279   -2.2031 H         1 UNK         0.1406 
     83 H83        30.0979   -3.8975   -1.5621 H         1 UNK         0.1631 
     84 H84        31.7912   -0.8924   -0.1136 H         1 UNK         0.0717 
     85 H85        30.9696   -2.3669    0.3266 H         1 UNK         0.0717 
     86 H86        29.6782    1.5357   -1.0934 H         1 UNK         0.0934 
     87 H87        30.9710    0.6499   -1.8479 H         1 UNK         0.0934 
     88 H88        29.3909   -0.2089   -3.6121 H         1 UNK         0.0739 
     89 H89        27.4107    1.4390   -2.1329 H         1 UNK         0.3093 
     90 H90        25.1974    1.0117   -2.3881 H         1 UNK         0.0818 
     91 H91        25.9666    2.9073   -3.9051 H         1 UNK         0.0819 
     92 H92        25.2873    2.0604   -5.2884 H         1 UNK         0.0819 
     93 H93        24.2382    2.6701   -4.0116 H         1 UNK         0.0819 
     94 H94        24.7522   -0.9178   -4.3947 H         1 UNK         0.3041 
     95 H95        21.1536   -1.0220   -3.9258 H         1 UNK         0.0784 
     96 H96        21.6625   -0.0896   -6.1591 H         1 UNK         0.0793 
     97 H97        23.0643   -1.1327   -6.3182 H         1 UNK         0.0793 
     98 H98        21.4450   -1.8286   -6.2676 H         1 UNK         0.0793 
     99 H99        23.1295   -3.0143   -4.6239 H         1 UNK         0.3024 
    100 H100       23.5534   -4.3340   -1.3911 H         1 UNK         0.1171 
    101 H101       21.8224   -5.5294   -3.6296 H         1 UNK         0.0786 
    102 H102       22.6328   -6.4379   -2.3527 H         1 UNK         0.0786 
    103 H103       21.3302   -5.3312   -1.9534 H         1 UNK         0.0786 
    104 H104       24.2399   -5.2281   -4.0540 H         1 UNK         0.2977 
    105 H105       28.7056    1.1689   -5.5542 H         1 UNK         0.3127 
    106 H106       30.2175    3.6893   -5.7439 H         1 UNK         0.0770 
    107 H107       28.2175    5.0095   -6.3582 H         1 UNK         0.0814 
    108 H108       27.9427    4.3099   -4.7823 H         1 UNK         0.0814 
    109 H109       27.1770    3.5974   -6.1990 H         1 UNK         0.0814 
    110 H110       28.9933    4.5441   -8.1165 H         1 UNK         0.2983 
    111 H111       30.5527    3.2907  -10.0270 H         1 UNK         0.0947 
    112 H112       29.2558    4.6795  -11.6590 H         1 UNK         0.0806 
    113 H113       29.7022    5.6038  -10.2364 H         1 UNK         0.0806 
    114 H114       28.0495    5.0158  -10.4250 H         1 UNK         0.0806 
    115 H115       27.2507    2.4403   -9.1372 H         1 UNK         0.3000 
    116 H116       26.6135    0.7275  -11.3226 H         1 UNK         0.0850 
    117 H117       25.6690    0.6973   -8.4025 H         1 UNK         0.0810 
    118 H118       24.9214   -0.2072   -9.7140 H         1 UNK         0.0810 
    119 H119       24.9007    1.5466   -9.7423 H         1 UNK         0.0810 
    120 H120       28.7079    0.2343   -8.5279 H         1 UNK         0.3040 
    121 H121       29.0892   -2.6579   -9.1537 H         1 UNK         0.0766 
    122 H122       28.5979   -2.0427   -6.7607 H         1 UNK         0.0812 
    123 H123       30.0015   -0.9786   -6.7482 H         1 UNK         0.0812 
    124 H124       30.2093   -2.7095   -6.9427 H         1 UNK         0.0812 
    125 H125       30.2255    0.2362  -10.2256 H         1 UNK         0.3205 
    126 H126       32.0337    1.1612  -11.0452 H         1 UNK         0.0754 
    127 H127       33.8154   -0.1779  -12.0644 H         1 UNK         0.0769 
    128 H128       32.2723   -0.9530  -12.3789 H         1 UNK         0.0769 
    129 H129       33.3528   -1.5999  -11.1442 H         1 UNK         0.0769 
    130 H130       31.6732    1.0638   -8.1834 H         1 UNK         0.2981 
    131 H131       34.4664    1.2558   -7.1539 H         1 UNK         0.0541 
    132 H132       32.5230    3.4513   -8.4593 H         1 UNK         0.3459 
    133 H133       32.7349    4.7425   -7.3032 H         1 UNK         0.3459 
    134 H134       31.8816    0.4839   -5.7087 H         1 UNK         0.0612 
    135 H135       33.3978    0.7960   -4.8976 H         1 UNK         0.0612 
    136 H136       34.5956   -0.9892   -4.0200 H         1 UNK         0.0624 
    137 H137       34.8323   -2.5828   -4.6873 H         1 UNK         0.0624 
@<TRIPOS>BOND
     1    1    2 1    
     2    1   72 1    
     3    1   73 1    
     4    1   74 1    
     5    2    3 2    
     6    2    4 am   BACKBONE|DICT|INTERRES
     7    4    5 1    
     8    4   75 1    
     9    5    6 1    
    10    5   35 1    
    11    5   76 1    
    12    6    7 1    
    13    6   77 1    
    14    6   78 1    
    15    7    8 1    
    16    8    9 1    
    17    8   79 1    
    18    8   80 1    
    19    9   10 ar   
    20    9   14 ar   
    21   10   11 ar   
    22   10   81 1    
    23   11   12 ar   
    24   11   71 1    
    25   12   13 ar   
    26   12   82 1    
    27   13   14 ar   
    28   13   15 1    
    29   14   83 1    
    30   15   16 1    
    31   15   84 1    
    32   15   85 1    
    33   16   17 1    
    34   17   18 1    
    35   17   86 1    
    36   17   87 1    
    37   18   19 1    
    38   18   37 1    
    39   18   88 1    
    40   19   20 am   BACKBONE|DICT|INTERRES
    41   19   89 1    
    42   20   21 2    
    43   20   22 1    
    44   22   23 1    
    45   22   24 1    
    46   22   90 1    
    47   23   91 1    
    48   23   92 1    
    49   23   93 1    
    50   24   25 am   BACKBONE|DICT|INTERRES
    51   24   94 1    
    52   25   26 2    
    53   25   27 1    
    54   27   28 1    
    55   27   29 1    
    56   27   95 1    
    57   28   96 1    
    58   28   97 1    
    59   28   98 1    
    60   29   30 am   BACKBONE|DICT|INTERRES
    61   29   99 1    
    62   30   31 2    
    63   30   32 1    
    64   32   33 1    
    65   32   34 1    
    66   32  100 1    
    67   33  101 1    
    68   33  102 1    
    69   33  103 1    
    70   34   35 am   BACKBONE|DICT|INTERRES
    71   34  104 1    
    72   35   36 2    
    73   37   38 2    
    74   37   39 am   BACKBONE|DICT|INTERRES
    75   39   40 1    
    76   39  105 1    
    77   40   41 1    
    78   40   42 1    
    79   40  106 1    
    80   41  107 1    
    81   41  108 1    
    82   41  109 1    
    83   42   43 2    
    84   42   44 am   BACKBONE|DICT|INTERRES
    85   44   45 1    
    86   44  110 1    
    87   45   46 1    
    88   45   47 1    
    89   45  111 1    
    90   46  112 1    
    91   46  113 1    
    92   46  114 1    
    93   47   48 2    
    94   47   49 am   BACKBONE|DICT|INTERRES
    95   49   50 1    
    96   49  115 1    
    97   50   51 1    
    98   50   52 1    
    99   50  116 1    
   100   51  117 1    
   101   51  118 1    
   102   51  119 1    
   103   52   53 2    
   104   52   54 am   BACKBONE|DICT|INTERRES
   105   54   55 1    
   106   54  120 1    
   107   55   56 1    
   108   55   57 1    
   109   55  121 1    
   110   56  122 1    
   111   56  123 1    
   112   56  124 1    
   113   57   58 2    
   114   57   59 am   BACKBONE|DICT|INTERRES
   115   59   60 1    
   116   59  125 1    
   117   60   61 1    
   118   60   62 1    
   119   60  126 1    
   120   61  127 1    
   121   61  128 1    
   122   61  129 1    
   123   62   63 2    
   124   62   64 am   BACKBONE|DICT|INTERRES
   125   64   65 1    
   126   64  130 1    
   127   65   66 1    
   128   65   69 1    
   129   65  131 1    
   130   66   67 am   BACKBONE|DICT|INTERRES
   131   66   68 2    
   132   67  132 1    
   133   67  133 1    
   134   69   70 1    
   135   69  134 1    
   136   69  135 1    
   137   70   71 1    
   138   71  136 1    
   139   71  137 1    
@<TRIPOS>SUBSTRUCTURE
     1 UNK         1 GROUP             0       ****    0 ROOT    
