@<TRIPOS>MOLECULE
3R137
137   139    1
SMALL
USER_CHARGES


@<TRIPOS>ATOM
      1 CA         27.5625    0.2488    0.2553 C.3       0 UNK        -0.2020 
      2 C          27.7463   -1.2608    0.2097 C.2       0 UNK         0.4855 
      3 O          27.0620   -1.9813    0.9364 O.2       0 UNK        -0.5197 
      4 N          28.6604   -1.7329   -0.6487 N.am      1 UNK        -0.4892 
      5 CA         28.9795   -3.1472   -0.9113 C.3       1 UNK         0.0835 
      6 C6         29.5952   -3.9089    0.2975 C.3       12 UNK        -0.0855 
      7 S7         30.9640   -3.0134    1.1219 S.3       12 UNK        -0.2931 
      8 C8         32.4508   -3.5855    0.2193 C.3       12 UNK         0.0378 
      9 C9         32.6424   -3.0039   -1.1850 C.ar      12 UNK        -0.0802 
     10 C10        33.4870   -3.6686   -2.0800 C.ar      12 UNK        -0.0944 
     11 C11        33.6941   -3.1867   -3.3774 C.ar      12 UNK        -0.0787 
     12 C12        33.0199   -2.0279   -3.7865 C.ar      12 UNK        -0.0862 
     13 C13        32.1551   -1.3633   -2.9136 C.ar      12 UNK        -0.0733 
     14 C14        32.0153   -1.8242   -1.6030 C.ar      12 UNK        -0.0832 
     15 C15        31.3306   -0.1759   -3.3877 C.3       12 UNK         0.0240 
     16 S16        29.6293   -0.7110   -3.7641 S.3       12 UNK        -0.2522 
     17 C17        28.7775    0.8773   -4.0394 C.3       12 UNK        -0.0967 
     18 CA         28.4409    1.1298   -5.5302 C.3       5 UNK         0.0660 
     19 N          27.5603    0.1026   -6.1021 N.am      5 UNK        -0.4015 
     20 C          27.3068   -0.0214   -7.4155 C.2       4 UNK         0.4946 
     21 O          27.8045    0.7095   -8.2724 O.2       4 UNK        -0.5353 
     22 CA         26.3059   -1.0963   -7.8740 C.3       4 UNK         0.0277 
     23 CB         27.0536   -2.3772   -8.2749 C.3       4 UNK        -0.1981 
     24 N          25.2767   -1.4255   -6.8878 N.am      4 UNK        -0.4209 
     25 C          24.4424   -0.5602   -6.2921 C.2       3 UNK         0.4942 
     26 O          24.3898    0.6405   -6.5636 O.2       3 UNK        -0.5208 
     27 CA         23.5838   -1.1190   -5.1406 C.3       3 UNK         0.0250 
     28 CB         22.1987   -1.5355   -5.6593 C.3       3 UNK        -0.1990 
     29 N          24.2068   -2.2486   -4.4304 N.am      3 UNK        -0.4232 
     30 C          25.4095   -2.2014   -3.8387 C.2       2 UNK         0.4993 
     31 O          26.1105   -1.1840   -3.8069 O.2       2 UNK        -0.5286 
     32 CA         25.9534   -3.5110   -3.2517 C.3       2 UNK         0.0209 
     33 CB         26.2848   -4.5245   -4.3644 C.3       2 UNK        -0.1931 
     34 N          27.1634   -3.1668   -2.5197 N.am      2 UNK        -0.4546 
     35 C          27.7817   -3.8681   -1.5656 C.2       1 UNK         0.5154 
     36 O          27.4371   -4.9943   -1.2021 O.2       1 UNK        -0.5181 
     37 C          27.8685    2.5513   -5.7131 C.2       5 UNK         0.5014 
     38 O          28.6477    3.5019   -5.7863 O.2       5 UNK        -0.5248 
     39 N          26.5361    2.6740   -5.7959 N.am      6 UNK        -0.4434 
     40 CA         25.8395    3.9245   -6.0877 C.3       6 UNK         0.0363 
     41 CB         24.5599    4.0058   -5.2385 C.3       6 UNK        -0.1936 
     42 C          25.5024    4.0310   -7.5818 C.2       6 UNK         0.5081 
     43 O          25.6920    5.0970   -8.1674 O.2       6 UNK        -0.5248 
     44 N          24.9876    2.9398   -8.1667 N.am      7 UNK        -0.4718 
     45 CA         24.4580    2.9122   -9.5316 C.3       7 UNK         0.0273 
     46 CB         23.5677    1.6711   -9.7066 C.3       7 UNK        -0.1935 
     47 C          25.5305    2.9653  -10.6318 C.2       7 UNK         0.5018 
     48 O          25.2962    3.6105  -11.6548 O.2       7 UNK        -0.5186 
     49 N          26.6601    2.2757  -10.4252 N.am      8 UNK        -0.4240 
     50 CA         27.7247    2.1149  -11.4229 C.3       8 UNK         0.0235 
     51 CB         27.7773    0.6348  -11.8435 C.3       8 UNK        -0.2000 
     52 C          29.1050    2.5672  -10.9202 C.2       8 UNK         0.4941 
     53 O          30.0027    2.7403  -11.7453 O.2       8 UNK        -0.5273 
     54 N          29.2628    2.7136   -9.5957 N.am      9 UNK        -0.4262 
     55 CA         30.5252    2.8715   -8.8632 C.3       9 UNK         0.0264 
     56 CB         31.2356    4.1937   -9.2251 C.3       9 UNK        -0.1955 
     57 C          31.4227    1.6255   -9.0102 C.2       9 UNK         0.5031 
     58 O          32.6346    1.7543   -9.1967 O.2       9 UNK        -0.5390 
     59 N          30.7995    0.4425   -8.9374 N.am      10 UNK        -0.4204 
     60 CA         31.4339   -0.8680   -9.0741 C.3       10 UNK         0.0237 
     61 CB         30.9421   -1.5161  -10.3800 C.3       10 UNK        -0.1985 
     62 C          31.0740   -1.7426   -7.8672 C.2       10 UNK         0.4970 
     63 O          30.1088   -1.4479   -7.1653 O.2       10 UNK        -0.4914 
     64 N          31.8488   -2.8086   -7.6494 N.am      11 UNK        -0.4285 
     65 CA         31.6256   -3.7817   -6.5693 C.3       11 UNK         0.1007 
     66 C          30.3504   -4.6423   -6.7849 C.2       11 UNK         0.5703 
     67 N          29.7214   -5.0962   -5.7092 N.am      11 UNK        -0.7361 
     68 O          29.9556   -4.9404   -7.9108 O.2       11 UNK        -0.4986 
     69 C69        32.8678   -4.6832   -6.3440 C.3       12 UNK        -0.0947 
     70 S70        34.4041   -3.7328   -6.0788 S.3       12 UNK        -0.2240 
     71 C71        34.6774   -3.9299   -4.2845 C.3       12 UNK         0.0194 
     72 H72        27.7587    0.6202    1.2607 H         1 UNK         0.0906 
     73 H73        26.5385    0.5092   -0.0114 H         1 UNK         0.0906 
     74 H74        28.2324    0.7640   -0.4331 H         1 UNK         0.0906 
     75 H75        29.1512   -1.0760   -1.2394 H         1 UNK         0.3140 
     76 H76        29.7338   -3.1466   -1.6971 H         1 UNK         0.1085 
     77 H77        29.9518   -4.8919   -0.0151 H         1 UNK         0.0836 
     78 H78        28.8275   -4.0958    1.0504 H         1 UNK         0.0836 
     79 H79        33.3274   -3.3237    0.8132 H         1 UNK         0.0731 
     80 H80        32.4295   -4.6754    0.1703 H         1 UNK         0.0731 
     81 H81        33.9980   -4.5665   -1.7588 H         1 UNK         0.1312 
     82 H82        33.1496   -1.6455   -4.7890 H         1 UNK         0.1406 
     83 H83        31.3763   -1.2795   -0.9242 H         1 UNK         0.1631 
     84 H84        31.7726    0.2757   -4.2773 H         1 UNK         0.0717 
     85 H85        31.3171    0.5944   -2.6151 H         1 UNK         0.0717 
     86 H86        27.8664    0.8812   -3.4379 H         1 UNK         0.0934 
     87 H87        29.3990    1.6838   -3.6450 H         1 UNK         0.0934 
     88 H88        29.3782    1.0944   -6.0897 H         1 UNK         0.0739 
     89 H89        27.1143   -0.5211   -5.4373 H         1 UNK         0.3093 
     90 H90        25.7982   -0.7086   -8.7581 H         1 UNK         0.0818 
     91 H91        27.8082   -2.1662   -9.0336 H         1 UNK         0.0819 
     92 H92        27.5707   -2.8260   -7.4253 H         1 UNK         0.0819 
     93 H93        26.3772   -3.1230   -8.6923 H         1 UNK         0.0819 
     94 H94        25.2372   -2.3883   -6.5893 H         1 UNK         0.3041 
     95 H95        23.4517   -0.3108   -4.4182 H         1 UNK         0.0784 
     96 H96        21.7098   -0.7063   -6.1733 H         1 UNK         0.0793 
     97 H97        22.2628   -2.3642   -6.3656 H         1 UNK         0.0793 
     98 H98        21.5431   -1.8384   -4.8427 H         1 UNK         0.0793 
     99 H99        23.6890   -3.1163   -4.4185 H         1 UNK         0.3024 
    100 H100       25.2168   -3.9259   -2.5603 H         1 UNK         0.1171 
    101 H101       25.3903   -4.8181   -4.9145 H         1 UNK         0.0786 
    102 H102       26.9931   -4.1113   -5.0838 H         1 UNK         0.0786 
    103 H103       26.7202   -5.4362   -3.9551 H         1 UNK         0.0786 
    104 H104       27.4825   -2.2245   -2.7204 H         1 UNK         0.2977 
    105 H105       25.9651    1.8370   -5.7668 H         1 UNK         0.3127 
    106 H106       26.4693    4.7770   -5.8239 H         1 UNK         0.0770 
    107 H107       23.8785    3.1797   -5.4462 H         1 UNK         0.0814 
    108 H108       24.0193    4.9323   -5.4367 H         1 UNK         0.0814 
    109 H109       24.7914    3.9878   -4.1735 H         1 UNK         0.0814 
    110 H110       24.8245    2.1098   -7.6003 H         1 UNK         0.2983 
    111 H111       23.8249    3.7936   -9.6586 H         1 UNK         0.0947 
    112 H112       24.1303    0.7467   -9.5793 H         1 UNK         0.0806 
    113 H113       23.1219    1.6471  -10.7020 H         1 UNK         0.0806 
    114 H114       22.7500    1.6650   -8.9856 H         1 UNK         0.0806 
    115 H115       26.7776    1.7652   -9.5556 H         1 UNK         0.3000 
    116 H116       27.5122    2.7125  -12.3118 H         1 UNK         0.0850 
    117 H117       28.5571    0.4639  -12.5871 H         1 UNK         0.0810 
    118 H118       26.8335    0.3157  -12.2856 H         1 UNK         0.0810 
    119 H119       27.9870   -0.0175  -10.9950 H         1 UNK         0.0810 
    120 H120       28.4727    2.4572   -9.0162 H         1 UNK         0.3040 
    121 H121       30.2610    2.9252   -7.8074 H         1 UNK         0.0766 
    122 H122       31.6074    4.1916  -10.2499 H         1 UNK         0.0812 
    123 H123       32.0922    4.3644   -8.5722 H         1 UNK         0.0812 
    124 H124       30.5665    5.0464   -9.1110 H         1 UNK         0.0812 
    125 H125       29.8116    0.4232   -8.6996 H         1 UNK         0.3205 
    126 H126       32.5207   -0.7672   -9.1081 H         1 UNK         0.0754 
    127 H127       31.4100   -2.4882  -10.5399 H         1 UNK         0.0769 
    128 H128       31.1823   -0.8949  -11.2433 H         1 UNK         0.0769 
    129 H129       29.8626   -1.6709  -10.3716 H         1 UNK         0.0769 
    130 H130       32.6147   -3.0079   -8.2747 H         1 UNK         0.2981 
    131 H131       31.4581   -3.2075   -5.6574 H         1 UNK         0.0541 
    132 H132       28.9098   -5.6800   -5.8307 H         1 UNK         0.3459 
    133 H133       30.0473   -4.8724   -4.7830 H         1 UNK         0.3459 
    134 H134       33.0257   -5.3326   -7.2071 H         1 UNK         0.0612 
    135 H135       32.7080   -5.3464   -5.4920 H         1 UNK         0.0612 
    136 H136       35.6818   -3.5718   -4.0557 H         1 UNK         0.0624 
    137 H137       34.6726   -4.9960   -4.0516 H         1 UNK         0.0624 
@<TRIPOS>BOND
     1    1    2 1    
     2    1   72 1    
     3    1   73 1    
     4    1   74 1    
     5    2    3 2    
     6    2    4 am   BACKBONE|DICT|INTERRES
     7    4    5 1    
     8    4   75 1    
     9    5    6 1    
    10    5   35 1    
    11    5   76 1    
    12    6    7 1    
    13    6   77 1    
    14    6   78 1    
    15    7    8 1    
    16    8    9 1    
    17    8   79 1    
    18    8   80 1    
    19    9   10 ar   
    20    9   14 ar   
    21   10   11 ar   
    22   10   81 1    
    23   11   12 ar   
    24   11   71 1    
    25   12   13 ar   
    26   12   82 1    
    27   13   14 ar   
    28   13   15 1    
    29   14   83 1    
    30   15   16 1    
    31   15   84 1    
    32   15   85 1    
    33   16   17 1    
    34   17   18 1    
    35   17   86 1    
    36   17   87 1    
    37   18   19 1    
    38   18   37 1    
    39   18   88 1    
    40   19   20 am   BACKBONE|DICT|INTERRES
    41   19   89 1    
    42   20   21 2    
    43   20   22 1    
    44   22   23 1    
    45   22   24 1    
    46   22   90 1    
    47   23   91 1    
    48   23   92 1    
    49   23   93 1    
    50   24   25 am   BACKBONE|DICT|INTERRES
    51   24   94 1    
    52   25   26 2    
    53   25   27 1    
    54   27   28 1    
    55   27   29 1    
    56   27   95 1    
    57   28   96 1    
    58   28   97 1    
    59   28   98 1    
    60   29   30 am   BACKBONE|DICT|INTERRES
    61   29   99 1    
    62   30   31 2    
    63   30   32 1    
    64   32   33 1    
    65   32   34 1    
    66   32  100 1    
    67   33  101 1    
    68   33  102 1    
    69   33  103 1    
    70   34   35 am   BACKBONE|DICT|INTERRES
    71   34  104 1    
    72   35   36 2    
    73   37   38 2    
    74   37   39 am   BACKBONE|DICT|INTERRES
    75   39   40 1    
    76   39  105 1    
    77   40   41 1    
    78   40   42 1    
    79   40  106 1    
    80   41  107 1    
    81   41  108 1    
    82   41  109 1    
    83   42   43 2    
    84   42   44 am   BACKBONE|DICT|INTERRES
    85   44   45 1    
    86   44  110 1    
    87   45   46 1    
    88   45   47 1    
    89   45  111 1    
    90   46  112 1    
    91   46  113 1    
    92   46  114 1    
    93   47   48 2    
    94   47   49 am   BACKBONE|DICT|INTERRES
    95   49   50 1    
    96   49  115 1    
    97   50   51 1    
    98   50   52 1    
    99   50  116 1    
   100   51  117 1    
   101   51  118 1    
   102   51  119 1    
   103   52   53 2    
   104   52   54 am   BACKBONE|DICT|INTERRES
   105   54   55 1    
   106   54  120 1    
   107   55   56 1    
   108   55   57 1    
   109   55  121 1    
   110   56  122 1    
   111   56  123 1    
   112   56  124 1    
   113   57   58 2    
   114   57   59 am   BACKBONE|DICT|INTERRES
   115   59   60 1    
   116   59  125 1    
   117   60   61 1    
   118   60   62 1    
   119   60  126 1    
   120   61  127 1    
   121   61  128 1    
   122   61  129 1    
   123   62   63 2    
   124   62   64 am   BACKBONE|DICT|INTERRES
   125   64   65 1    
   126   64  130 1    
   127   65   66 1    
   128   65   69 1    
   129   65  131 1    
   130   66   67 am   BACKBONE|DICT|INTERRES
   131   66   68 2    
   132   67  132 1    
   133   67  133 1    
   134   69   70 1    
   135   69  134 1    
   136   69  135 1    
   137   70   71 1    
   138   71  136 1    
   139   71  137 1    
@<TRIPOS>SUBSTRUCTURE
     1 UNK         1 GROUP             0       ****    0 ROOT    
