@<TRIPOS>MOLECULE
3R137
137   139    1
SMALL
USER_CHARGES


@<TRIPOS>ATOM
      1 CA         29.0591    1.7176    0.2077 C.3       0 UNK        -0.2020 
      2 C          29.3458    0.6106   -0.7950 C.2       0 UNK         0.4855 
      3 O          30.2897    0.7215   -1.5772 O.2       0 UNK        -0.5197 
      4 N          28.5313   -0.4523   -0.7898 N.am      1 UNK        -0.4892 
      5 CA         28.6424   -1.6300   -1.6619 C.3       1 UNK         0.0835 
      6 C6         27.9760   -2.8694   -1.0078 C.3       12 UNK        -0.0855 
      7 S7         29.0275   -3.5097    0.3454 S.3       12 UNK        -0.2931 
      8 C8         29.7495   -5.0414   -0.3487 C.3       12 UNK         0.0378 
      9 C9         30.1576   -4.9052   -1.8108 C.ar      12 UNK        -0.0802 
     10 C10        31.2480   -4.1122   -2.1805 C.ar      12 UNK        -0.0944 
     11 C11        31.5614   -3.9299   -3.5314 C.ar      12 UNK        -0.0787 
     12 C12        30.7889   -4.5577   -4.5142 C.ar      12 UNK        -0.0862 
     13 C13        29.7112   -5.3706   -4.1538 C.ar      12 UNK        -0.0733 
     14 C14        29.4116   -5.5507   -2.8008 C.ar      12 UNK        -0.0832 
     15 C15        28.8723   -6.0693   -5.2139 C.3       12 UNK         0.0240 
     16 S16        27.1210   -5.5760   -5.1255 S.3       12 UNK        -0.2522 
     17 C17        27.0298   -4.2368   -6.3587 C.3       12 UNK        -0.0967 
     18 CA         25.5634   -3.7559   -6.5106 C.3       5 UNK         0.0660 
     19 N          25.1341   -2.9700   -5.3471 N.am      5 UNK        -0.4015 
     20 C          23.8662   -2.8434   -4.9321 C.2       4 UNK         0.4946 
     21 O          22.9029   -3.3701   -5.4898 O.2       4 UNK        -0.5353 
     22 CA         23.6320   -1.9602   -3.6985 C.3       4 UNK         0.0277 
     23 CB         23.9627   -2.7267   -2.4065 C.3       4 UNK        -0.1981 
     24 N          24.4271   -0.7324   -3.7649 N.am      4 UNK        -0.4209 
     25 C          24.0541    0.3760   -4.4214 C.2       3 UNK         0.4942 
     26 O          22.9788    0.4927   -5.0094 O.2       3 UNK        -0.5208 
     27 CA         25.0427    1.5568   -4.4331 C.3       3 UNK         0.0250 
     28 CB         24.7634    2.5040   -3.2552 C.3       3 UNK        -0.1990 
     29 N          26.4456    1.1407   -4.3949 N.am      3 UNK        -0.4232 
     30 C          27.0760    0.5097   -5.3943 C.2       2 UNK         0.4993 
     31 O          26.5521    0.2377   -6.4726 O.2       2 UNK        -0.5286 
     32 CA         28.5198    0.0575   -5.1315 C.3       2 UNK         0.0209 
     33 CB         29.5004    1.1827   -5.4956 C.3       2 UNK        -0.1931 
     34 N          28.7703   -0.3707   -3.7534 N.am      2 UNK        -0.4546 
     35 C          28.1183   -1.3292   -3.0820 C.2       1 UNK         0.5154 
     36 O          27.1340   -1.9220   -3.5302 O.2       1 UNK        -0.5181 
     37 C          25.3135   -3.0476   -7.8623 C.2       5 UNK         0.5014 
     38 O          25.5205   -3.6773   -8.9010 O.2       5 UNK        -0.5248 
     39 N          24.8592   -1.7841   -7.8394 N.am      6 UNK        -0.4434 
     40 CA         24.5486   -0.9222   -8.9881 C.3       6 UNK         0.0363 
     41 CB         23.3520   -1.4746   -9.7919 C.3       6 UNK        -0.1936 
     42 C          25.7893   -0.6408   -9.8569 C.2       6 UNK         0.5081 
     43 O          25.7347   -0.7443  -11.0835 O.2       6 UNK        -0.5248 
     44 N          26.8891   -0.2872   -9.1847 N.am      7 UNK        -0.4718 
     45 CA         28.2012   -0.0026   -9.7642 C.3       7 UNK         0.0273 
     46 CB         29.2108   -1.0319   -9.2268 C.3       7 UNK        -0.1935 
     47 C          28.6277    1.4459   -9.4704 C.2       7 UNK         0.5018 
     48 O          29.8220    1.7056   -9.2966 O.2       7 UNK        -0.5186 
     49 N          27.6433    2.3581   -9.4083 N.am      8 UNK        -0.4240 
     50 CA         27.7677    3.7997   -9.1593 C.3       8 UNK         0.0235 
     51 CB         28.3588    4.5043  -10.4029 C.3       8 UNK        -0.2000 
     52 C          28.5323    4.0813   -7.8525 C.2       8 UNK         0.4941 
     53 O          27.9923    3.8253   -6.7763 O.2       8 UNK        -0.5273 
     54 N          29.7748    4.5600   -7.9763 N.am      9 UNK        -0.4262 
     55 CA         30.7569    4.6716   -6.8975 C.3       9 UNK         0.0264 
     56 CB         30.9647    6.1594   -6.5585 C.3       9 UNK        -0.1955 
     57 C          32.0812    3.9784   -7.2782 C.2       9 UNK         0.5031 
     58 O          33.0907    4.2096   -6.6111 O.2       9 UNK        -0.5390 
     59 N          32.0760    3.1613   -8.3435 N.am      10 UNK        -0.4204 
     60 CA         33.2512    2.4482   -8.8503 C.3       10 UNK         0.0237 
     61 CB         33.1015    2.2361  -10.3661 C.3       10 UNK        -0.1985 
     62 C          33.4642    1.1031   -8.1402 C.2       10 UNK         0.4970 
     63 O          34.6097    0.6730   -8.0038 O.2       10 UNK        -0.4914 
     64 N          32.3653    0.4689   -7.7074 N.am      11 UNK        -0.4285 
     65 CA         32.3292   -0.8241   -6.9999 C.3       11 UNK         0.1007 
     66 C          32.6572   -2.0691   -7.8814 C.2       11 UNK         0.5703 
     67 N          32.8209   -1.9339   -9.1922 N.am      11 UNK        -0.7361 
     68 O          32.7241   -3.1872   -7.3798 O.2       11 UNK        -0.4986 
     69 C69        33.1153   -0.7955   -5.6481 C.3       12 UNK        -0.0947 
     70 S70        32.1030   -1.3433   -4.2355 S.3       12 UNK        -0.2240 
     71 C71        32.7127   -3.0279   -3.9391 C.3       12 UNK         0.0194 
     72 H72        28.1942    1.4912    0.8310 H         1 UNK         0.0906 
     73 H73        29.9191    1.8621    0.8611 H         1 UNK         0.0906 
     74 H74        28.8661    2.6549   -0.3134 H         1 UNK         0.0906 
     75 H75        27.7711   -0.4818   -0.1251 H         1 UNK         0.3140 
     76 H76        29.7030   -1.8533   -1.7956 H         1 UNK         0.1085 
     77 H77        27.7888   -3.6626   -1.7318 H         1 UNK         0.0836 
     78 H78        26.9943   -2.6133   -0.6060 H         1 UNK         0.0836 
     79 H79        29.0269   -5.8500   -0.2276 H         1 UNK         0.0731 
     80 H80        30.6200   -5.3232    0.2453 H         1 UNK         0.0731 
     81 H81        31.8270   -3.6078   -1.4188 H         1 UNK         0.1312 
     82 H82        31.0277   -4.4065   -5.5585 H         1 UNK         0.1406 
     83 H83        28.5693   -6.1702   -2.5231 H         1 UNK         0.1631 
     84 H84        28.9383   -7.1464   -5.0544 H         1 UNK         0.0717 
     85 H85        29.2629   -5.8846   -6.2158 H         1 UNK         0.0717 
     86 H86        27.6897   -3.4176   -6.0663 H         1 UNK         0.0934 
     87 H87        27.4184   -4.6297   -7.3005 H         1 UNK         0.0934 
     88 H88        24.9316   -4.6463   -6.5541 H         1 UNK         0.0739 
     89 H89        25.8732   -2.5508   -4.7870 H         1 UNK         0.3093 
     90 H90        22.5721   -1.6971   -3.6690 H         1 UNK         0.0818 
     91 H91        25.0037   -3.0497   -2.3753 H         1 UNK         0.0819 
     92 H92        23.7750   -2.1154   -1.5238 H         1 UNK         0.0819 
     93 H93        23.3444   -3.6210   -2.3181 H         1 UNK         0.0819 
     94 H94        25.3587   -0.7775   -3.3711 H         1 UNK         0.3041 
     95 H95        24.8835    2.1095   -5.3618 H         1 UNK         0.0784 
     96 H96        23.7295    2.8520   -3.2717 H         1 UNK         0.0793 
     97 H97        24.9274    2.0152   -2.2939 H         1 UNK         0.0793 
     98 H98        25.4009    3.3874   -3.2973 H         1 UNK         0.0793 
     99 H99        26.9604    1.3264   -3.5468 H         1 UNK         0.3024 
    100 H100       28.7166   -0.8031   -5.7733 H         1 UNK         0.1171 
    101 H101       29.3027    2.0882   -4.9205 H         1 UNK         0.0786 
    102 H102       30.5352    0.8994   -5.3127 H         1 UNK         0.0786 
    103 H103       29.4171    1.4429   -6.5501 H         1 UNK         0.0786 
    104 H104       29.5375    0.0835   -3.2638 H         1 UNK         0.2977 
    105 H105       24.7940   -1.3337   -6.9367 H         1 UNK         0.3127 
    106 H106       24.2461    0.0397   -8.5710 H         1 UNK         0.0770 
    107 H107       23.5931   -2.4162  -10.2860 H         1 UNK         0.0814 
    108 H108       23.0466   -0.7714  -10.5676 H         1 UNK         0.0814 
    109 H109       22.4879   -1.6440   -9.1497 H         1 UNK         0.0814 
    110 H110       26.8085   -0.1675   -8.1733 H         1 UNK         0.2983 
    111 H111       28.1669   -0.0976  -10.8514 H         1 UNK         0.0947 
    112 H112       30.1935   -0.8879   -9.6761 H         1 UNK         0.0806 
    113 H113       28.8979   -2.0501   -9.4588 H         1 UNK         0.0806 
    114 H114       29.3220   -0.9557   -8.1462 H         1 UNK         0.0806 
    115 H115       26.6995    2.0148   -9.5145 H         1 UNK         0.3000 
    116 H116       26.7571    4.1831   -9.0094 H         1 UNK         0.0850 
    117 H117       28.4477    5.5801  -10.2442 H         1 UNK         0.0810 
    118 H118       27.7109    4.3664  -11.2687 H         1 UNK         0.0810 
    119 H119       29.3435    4.1209  -10.6729 H         1 UNK         0.0810 
    120 H120       30.1129    4.7634   -8.9067 H         1 UNK         0.3040 
    121 H121       30.3925    4.1626   -6.0031 H         1 UNK         0.0766 
    122 H122       30.0255    6.6340   -6.2738 H         1 UNK         0.0812 
    123 H123       31.3768    6.7113   -7.4040 H         1 UNK         0.0812 
    124 H124       31.6527    6.2809   -5.7208 H         1 UNK         0.0812 
    125 H125       31.1880    2.9204   -8.7786 H         1 UNK         0.3205 
    126 H126       34.1418    3.0580   -8.6820 H         1 UNK         0.0754 
    127 H127       33.9756    1.7293  -10.7776 H         1 UNK         0.0769 
    128 H128       33.0037    3.1870  -10.8901 H         1 UNK         0.0769 
    129 H129       32.2278    1.6298  -10.6089 H         1 UNK         0.0769 
    130 H130       31.4669    0.8769   -7.9286 H         1 UNK         0.2981 
    131 H131       31.2719   -0.9524   -6.7706 H         1 UNK         0.0541 
    132 H132       32.7751   -1.0269   -9.6253 H         1 UNK         0.3459 
    133 H133       33.0183   -2.7510   -9.7476 H         1 UNK         0.3459 
    134 H134       34.0427   -1.3689   -5.6988 H         1 UNK         0.0612 
    135 H135       33.4266    0.2214   -5.4051 H         1 UNK         0.0612 
    136 H136       33.4777   -3.0016   -3.1619 H         1 UNK         0.0624 
    137 H137       33.1944   -3.4283   -4.8308 H         1 UNK         0.0624 
@<TRIPOS>BOND
     1    1    2 1    
     2    1   72 1    
     3    1   73 1    
     4    1   74 1    
     5    2    3 2    
     6    2    4 am   BACKBONE|DICT|INTERRES
     7    4    5 1    
     8    4   75 1    
     9    5    6 1    
    10    5   35 1    
    11    5   76 1    
    12    6    7 1    
    13    6   77 1    
    14    6   78 1    
    15    7    8 1    
    16    8    9 1    
    17    8   79 1    
    18    8   80 1    
    19    9   10 ar   
    20    9   14 ar   
    21   10   11 ar   
    22   10   81 1    
    23   11   12 ar   
    24   11   71 1    
    25   12   13 ar   
    26   12   82 1    
    27   13   14 ar   
    28   13   15 1    
    29   14   83 1    
    30   15   16 1    
    31   15   84 1    
    32   15   85 1    
    33   16   17 1    
    34   17   18 1    
    35   17   86 1    
    36   17   87 1    
    37   18   19 1    
    38   18   37 1    
    39   18   88 1    
    40   19   20 am   BACKBONE|DICT|INTERRES
    41   19   89 1    
    42   20   21 2    
    43   20   22 1    
    44   22   23 1    
    45   22   24 1    
    46   22   90 1    
    47   23   91 1    
    48   23   92 1    
    49   23   93 1    
    50   24   25 am   BACKBONE|DICT|INTERRES
    51   24   94 1    
    52   25   26 2    
    53   25   27 1    
    54   27   28 1    
    55   27   29 1    
    56   27   95 1    
    57   28   96 1    
    58   28   97 1    
    59   28   98 1    
    60   29   30 am   BACKBONE|DICT|INTERRES
    61   29   99 1    
    62   30   31 2    
    63   30   32 1    
    64   32   33 1    
    65   32   34 1    
    66   32  100 1    
    67   33  101 1    
    68   33  102 1    
    69   33  103 1    
    70   34   35 am   BACKBONE|DICT|INTERRES
    71   34  104 1    
    72   35   36 2    
    73   37   38 2    
    74   37   39 am   BACKBONE|DICT|INTERRES
    75   39   40 1    
    76   39  105 1    
    77   40   41 1    
    78   40   42 1    
    79   40  106 1    
    80   41  107 1    
    81   41  108 1    
    82   41  109 1    
    83   42   43 2    
    84   42   44 am   BACKBONE|DICT|INTERRES
    85   44   45 1    
    86   44  110 1    
    87   45   46 1    
    88   45   47 1    
    89   45  111 1    
    90   46  112 1    
    91   46  113 1    
    92   46  114 1    
    93   47   48 2    
    94   47   49 am   BACKBONE|DICT|INTERRES
    95   49   50 1    
    96   49  115 1    
    97   50   51 1    
    98   50   52 1    
    99   50  116 1    
   100   51  117 1    
   101   51  118 1    
   102   51  119 1    
   103   52   53 2    
   104   52   54 am   BACKBONE|DICT|INTERRES
   105   54   55 1    
   106   54  120 1    
   107   55   56 1    
   108   55   57 1    
   109   55  121 1    
   110   56  122 1    
   111   56  123 1    
   112   56  124 1    
   113   57   58 2    
   114   57   59 am   BACKBONE|DICT|INTERRES
   115   59   60 1    
   116   59  125 1    
   117   60   61 1    
   118   60   62 1    
   119   60  126 1    
   120   61  127 1    
   121   61  128 1    
   122   61  129 1    
   123   62   63 2    
   124   62   64 am   BACKBONE|DICT|INTERRES
   125   64   65 1    
   126   64  130 1    
   127   65   66 1    
   128   65   69 1    
   129   65  131 1    
   130   66   67 am   BACKBONE|DICT|INTERRES
   131   66   68 2    
   132   67  132 1    
   133   67  133 1    
   134   69   70 1    
   135   69  134 1    
   136   69  135 1    
   137   70   71 1    
   138   71  136 1    
   139   71  137 1    
@<TRIPOS>SUBSTRUCTURE
     1 UNK         1 GROUP             0       ****    0 ROOT    
