@<TRIPOS>MOLECULE
3R137
137   139    1
SMALL
USER_CHARGES


@<TRIPOS>ATOM
      1 CA         27.5382   -5.3503    4.0637 C.3       0 UNK        -0.2020 
      2 C          27.8397   -4.2749    3.0305 C.2       0 UNK         0.4855 
      3 O          28.6634   -3.3962    3.2847 O.2       0 UNK        -0.5197 
      4 N          27.1764   -4.3357    1.8722 N.am      1 UNK        -0.4892 
      5 CA         27.2847   -3.3810    0.7696 C.3       1 UNK         0.0835 
      6 C6         28.5982   -3.5514   -0.0564 C.3       12 UNK        -0.0855 
      7 S7         29.5757   -2.0098   -0.1479 S.3       12 UNK        -0.2931 
      8 C8         29.0835   -1.2539   -1.7319 C.3       12 UNK         0.0378 
      9 C9         29.7530   -1.9018   -2.9351 C.ar      12 UNK        -0.0802 
     10 C10        30.9452   -1.3726   -3.4334 C.ar      12 UNK        -0.0944 
     11 C11        31.5537   -1.9238   -4.5643 C.ar      12 UNK        -0.0787 
     12 C12        30.9720   -3.0343   -5.1871 C.ar      12 UNK        -0.0862 
     13 C13        29.7867   -3.5866   -4.6862 C.ar      12 UNK        -0.0733 
     14 C14        29.1733   -3.0019   -3.5732 C.ar      12 UNK        -0.0832 
     15 C15        29.1977   -4.8498   -5.3049 C.3       12 UNK         0.0240 
     16 S16        28.2560   -4.5417   -6.8328 S.3       12 UNK        -0.2522 
     17 C17        26.7979   -3.6272   -6.2198 C.3       12 UNK        -0.0967 
     18 CA         26.4373   -2.4144   -7.1090 C.3       5 UNK         0.0660 
     19 N          25.1472   -1.8245   -6.7507 N.am      5 UNK        -0.4015 
     20 C          24.4781   -0.9478   -7.5151 C.2       4 UNK         0.4946 
     21 O          24.8421   -0.5934   -8.6364 O.2       4 UNK        -0.5353 
     22 CA         23.2071   -0.3304   -6.9089 C.3       4 UNK         0.0277 
     23 CB         21.9962   -1.2500   -7.1331 C.3       4 UNK        -0.1981 
     24 N          23.3481   -0.0368   -5.4804 N.am      4 UNK        -0.4209 
     25 C          24.1961    0.8720   -4.9771 C.2       3 UNK         0.4942 
     26 O          24.9148    1.5946   -5.6664 O.2       3 UNK        -0.5208 
     27 CA         24.2907    0.9596   -3.4451 C.3       3 UNK         0.0250 
     28 CB         23.2309    1.9264   -2.8936 C.3       3 UNK        -0.1990 
     29 N          24.1754   -0.3387   -2.7694 N.am      3 UNK        -0.4232 
     30 C          25.0318   -1.3561   -2.9311 C.2       2 UNK         0.4993 
     31 O          25.9928   -1.3301   -3.7043 O.2       2 UNK        -0.5286 
     32 CA         24.7994   -2.6054   -2.0779 C.3       2 UNK         0.0209 
     33 CB         24.7007   -3.8698   -2.9554 C.3       2 UNK        -0.1931 
     34 N          25.9182   -2.6962   -1.1454 N.am      2 UNK        -0.4546 
     35 C          26.0064   -3.5040   -0.0851 C.2       1 UNK         0.5154 
     36 O          25.1311   -4.3177    0.2286 O.2       1 UNK        -0.5181 
     37 C          27.5382   -1.3402   -7.1162 C.2       5 UNK         0.5014 
     38 O          28.2697   -1.2526   -8.1002 O.2       5 UNK        -0.5248 
     39 N          27.5975   -0.5118   -6.0620 N.am      6 UNK        -0.4434 
     40 CA         28.5372    0.6075   -5.9487 C.3       6 UNK         0.0363 
     41 CB         28.3482    1.3131   -4.5978 C.3       6 UNK        -0.1936 
     42 C          28.4171    1.6124   -7.1081 C.2       6 UNK         0.5081 
     43 O          29.4330    1.9965   -7.6876 O.2       6 UNK        -0.5248 
     44 N          27.1760    1.9828   -7.4548 N.am      7 UNK        -0.4718 
     45 CA         26.8534    2.8570   -8.5842 C.3       7 UNK         0.0273 
     46 CB         25.3556    3.2004   -8.5563 C.3       7 UNK        -0.1935 
     47 C          27.2479    2.2628   -9.9473 C.2       7 UNK         0.5018 
     48 O          27.7626    2.9957  -10.7927 O.2       7 UNK        -0.5186 
     49 N          27.0069    0.9577  -10.1373 N.am      8 UNK        -0.4240 
     50 CA         27.3591    0.2268  -11.3559 C.3       8 UNK         0.0235 
     51 CB         26.6074   -1.1138  -11.3921 C.3       8 UNK        -0.2000 
     52 C          28.8732    0.0039  -11.5014 C.2       8 UNK         0.4941 
     53 O          29.4117    0.2140  -12.5892 O.2       8 UNK        -0.5273 
     54 N          29.5274   -0.4331  -10.4172 N.am      9 UNK        -0.4262 
     55 CA         30.9511   -0.7682  -10.3864 C.3       9 UNK         0.0264 
     56 CB         31.2415   -1.6559   -9.1639 C.3       9 UNK        -0.1955 
     57 C          31.8738    0.4583  -10.3729 C.2       9 UNK         0.5031 
     58 O          33.0144    0.3398  -10.8228 O.2       9 UNK        -0.5390 
     59 N          31.4109    1.5836   -9.8057 N.am      10 UNK        -0.4204 
     60 CA         32.1268    2.8466   -9.5519 C.3       10 UNK         0.0237 
     61 CB         32.6710    3.4752  -10.8499 C.3       10 UNK        -0.1985 
     62 C          33.2205    2.7445   -8.4691 C.2       10 UNK         0.4970 
     63 O          33.4048    3.7005   -7.7150 O.2       10 UNK        -0.4914 
     64 N          33.8899    1.5882   -8.3893 N.am      11 UNK        -0.4285 
     65 CA         34.8071    1.1514   -7.3239 C.3       11 UNK         0.1007 
     66 C          36.1826    1.8833   -7.3009 C.2       11 UNK         0.5703 
     67 N          36.5539    2.6280   -8.3357 N.am      11 UNK        -0.7361 
     68 O          36.9444    1.7491   -6.3457 O.2       11 UNK        -0.4986 
     69 C69        34.1340    1.0947   -5.9196 C.3       12 UNK        -0.0947 
     70 S70        32.4988    0.2767   -5.9136 S.3       12 UNK        -0.2240 
     71 C71        32.8415   -1.3076   -5.0911 C.3       12 UNK         0.0194 
     72 H72        28.4460   -5.9019    4.3067 H         1 UNK         0.0906 
     73 H73        27.1600   -4.8961    4.9792 H         1 UNK         0.0906 
     74 H74        26.7947   -6.0626    3.7063 H         1 UNK         0.0906 
     75 H75        26.4522   -5.0302    1.7233 H         1 UNK         0.3140 
     76 H76        27.2498   -2.3824    1.2118 H         1 UNK         0.1085 
     77 H77        29.2474   -4.2914    0.4144 H         1 UNK         0.0836 
     78 H78        28.4203   -3.9537   -1.0526 H         1 UNK         0.0836 
     79 H79        28.0035   -1.2618   -1.8494 H         1 UNK         0.0731 
     80 H80        29.3590   -0.1989   -1.6915 H         1 UNK         0.0731 
     81 H81        31.3952   -0.5154   -2.9513 H         1 UNK         0.1312 
     82 H82        31.4441   -3.4758   -6.0541 H         1 UNK         0.1406 
     83 H83        28.2451   -3.4098   -3.2004 H         1 UNK         0.1631 
     84 H84        28.5556   -5.3652   -4.5888 H         1 UNK         0.0717 
     85 H85        30.0072   -5.5446   -5.5332 H         1 UNK         0.0717 
     86 H86        25.9616   -4.3272   -6.1885 H         1 UNK         0.0934 
     87 H87        26.9597   -3.3065   -5.1926 H         1 UNK         0.0934 
     88 H88        26.3405   -2.7803   -8.1339 H         1 UNK         0.0739 
     89 H89        24.8089   -2.0105   -5.8187 H         1 UNK         0.3093 
     90 H90        23.0205    0.6128   -7.4274 H         1 UNK         0.0818 
     91 H91        21.0745   -0.7846   -6.7834 H         1 UNK         0.0819 
     92 H92        21.8643   -1.4668   -8.1943 H         1 UNK         0.0819 
     93 H93        22.1080   -2.2045   -6.6174 H         1 UNK         0.0819 
     94 H94        22.7838   -0.5753   -4.8394 H         1 UNK         0.3041 
     95 H95        25.2759    1.3654   -3.2056 H         1 UNK         0.0784 
     96 H96        23.3113    2.9051   -3.3693 H         1 UNK         0.0793 
     97 H97        22.2180    1.5616   -3.0683 H         1 UNK         0.0793 
     98 H98        23.3531    2.0800   -1.8212 H         1 UNK         0.0793 
     99 H99        23.4192   -0.4343   -2.1062 H         1 UNK         0.3024 
    100 H100       23.8717   -2.4932   -1.5121 H         1 UNK         0.1171 
    101 H101       23.9628   -3.7439   -3.7486 H         1 UNK         0.0786 
    102 H102       24.3941   -4.7365   -2.3699 H         1 UNK         0.0786 
    103 H103       25.6536   -4.1118   -3.4245 H         1 UNK         0.0786 
    104 H104       26.6679   -2.0448   -1.3289 H         1 UNK         0.2977 
    105 H105       26.9753   -0.6746   -5.2748 H         1 UNK         0.3127 
    106 H106       29.5415    0.1816   -5.9763 H         1 UNK         0.0770 
    107 H107       27.3800    1.8090   -4.5302 H         1 UNK         0.0814 
    108 H108       29.1166    2.0724   -4.4478 H         1 UNK         0.0814 
    109 H109       28.4188    0.6096   -3.7711 H         1 UNK         0.0814 
    110 H110       26.3943    1.6565   -6.8910 H         1 UNK         0.2983 
    111 H111       27.4184    3.7827   -8.4550 H         1 UNK         0.0947 
    112 H112       25.0902    3.8644   -9.3800 H         1 UNK         0.0806 
    113 H113       25.0828    3.7067   -7.6301 H         1 UNK         0.0806 
    114 H114       24.7360    2.3068   -8.6422 H         1 UNK         0.0806 
    115 H115       26.5444    0.4311   -9.4034 H         1 UNK         0.3000 
    116 H116       27.0287    0.8193  -12.2120 H         1 UNK         0.0850 
    117 H117       26.8490   -1.6743  -12.2962 H         1 UNK         0.0810 
    118 H118       25.5279   -0.9618  -11.3830 H         1 UNK         0.0810 
    119 H119       26.8614   -1.7432  -10.5382 H         1 UNK         0.0810 
    120 H120       29.0006   -0.6221   -9.5622 H         1 UNK         0.3040 
    121 H121       31.1844   -1.3439  -11.2847 H         1 UNK         0.0766 
    122 H122       31.0172   -1.1392   -8.2294 H         1 UNK         0.0812 
    123 H123       30.6482   -2.5703   -9.1864 H         1 UNK         0.0812 
    124 H124       32.2914   -1.9496   -9.1298 H         1 UNK         0.0812 
    125 H125       30.4981    1.5379   -9.3604 H         1 UNK         0.3205 
    126 H126       31.3692    3.5248   -9.1557 H         1 UNK         0.0754 
    127 H127       33.0782    4.4685  -10.6568 H         1 UNK         0.0769 
    128 H128       31.8832    3.5866  -11.5951 H         1 UNK         0.0769 
    129 H129       33.4704    2.8805  -11.2923 H         1 UNK         0.0769 
    130 H130       33.7109    0.9093   -9.1222 H         1 UNK         0.2981 
    131 H131       35.0572    0.1236   -7.5879 H         1 UNK         0.0541 
    132 H132       35.9407    2.7398   -9.1269 H         1 UNK         0.3459 
    133 H133       37.4500    3.0888   -8.3182 H         1 UNK         0.3459 
    134 H134       33.9936    2.1046   -5.5309 H         1 UNK         0.0612 
    135 H135       34.7880    0.5907   -5.2066 H         1 UNK         0.0612 
    136 H136       33.3414   -1.9774   -5.7924 H         1 UNK         0.0624 
    137 H137       33.5279   -1.1530   -4.2576 H         1 UNK         0.0624 
@<TRIPOS>BOND
     1    1    2 1    
     2    1   72 1    
     3    1   73 1    
     4    1   74 1    
     5    2    3 2    
     6    2    4 am   BACKBONE|DICT|INTERRES
     7    4    5 1    
     8    4   75 1    
     9    5    6 1    
    10    5   35 1    
    11    5   76 1    
    12    6    7 1    
    13    6   77 1    
    14    6   78 1    
    15    7    8 1    
    16    8    9 1    
    17    8   79 1    
    18    8   80 1    
    19    9   10 ar   
    20    9   14 ar   
    21   10   11 ar   
    22   10   81 1    
    23   11   12 ar   
    24   11   71 1    
    25   12   13 ar   
    26   12   82 1    
    27   13   14 ar   
    28   13   15 1    
    29   14   83 1    
    30   15   16 1    
    31   15   84 1    
    32   15   85 1    
    33   16   17 1    
    34   17   18 1    
    35   17   86 1    
    36   17   87 1    
    37   18   19 1    
    38   18   37 1    
    39   18   88 1    
    40   19   20 am   BACKBONE|DICT|INTERRES
    41   19   89 1    
    42   20   21 2    
    43   20   22 1    
    44   22   23 1    
    45   22   24 1    
    46   22   90 1    
    47   23   91 1    
    48   23   92 1    
    49   23   93 1    
    50   24   25 am   BACKBONE|DICT|INTERRES
    51   24   94 1    
    52   25   26 2    
    53   25   27 1    
    54   27   28 1    
    55   27   29 1    
    56   27   95 1    
    57   28   96 1    
    58   28   97 1    
    59   28   98 1    
    60   29   30 am   BACKBONE|DICT|INTERRES
    61   29   99 1    
    62   30   31 2    
    63   30   32 1    
    64   32   33 1    
    65   32   34 1    
    66   32  100 1    
    67   33  101 1    
    68   33  102 1    
    69   33  103 1    
    70   34   35 am   BACKBONE|DICT|INTERRES
    71   34  104 1    
    72   35   36 2    
    73   37   38 2    
    74   37   39 am   BACKBONE|DICT|INTERRES
    75   39   40 1    
    76   39  105 1    
    77   40   41 1    
    78   40   42 1    
    79   40  106 1    
    80   41  107 1    
    81   41  108 1    
    82   41  109 1    
    83   42   43 2    
    84   42   44 am   BACKBONE|DICT|INTERRES
    85   44   45 1    
    86   44  110 1    
    87   45   46 1    
    88   45   47 1    
    89   45  111 1    
    90   46  112 1    
    91   46  113 1    
    92   46  114 1    
    93   47   48 2    
    94   47   49 am   BACKBONE|DICT|INTERRES
    95   49   50 1    
    96   49  115 1    
    97   50   51 1    
    98   50   52 1    
    99   50  116 1    
   100   51  117 1    
   101   51  118 1    
   102   51  119 1    
   103   52   53 2    
   104   52   54 am   BACKBONE|DICT|INTERRES
   105   54   55 1    
   106   54  120 1    
   107   55   56 1    
   108   55   57 1    
   109   55  121 1    
   110   56  122 1    
   111   56  123 1    
   112   56  124 1    
   113   57   58 2    
   114   57   59 am   BACKBONE|DICT|INTERRES
   115   59   60 1    
   116   59  125 1    
   117   60   61 1    
   118   60   62 1    
   119   60  126 1    
   120   61  127 1    
   121   61  128 1    
   122   61  129 1    
   123   62   63 2    
   124   62   64 am   BACKBONE|DICT|INTERRES
   125   64   65 1    
   126   64  130 1    
   127   65   66 1    
   128   65   69 1    
   129   65  131 1    
   130   66   67 am   BACKBONE|DICT|INTERRES
   131   66   68 2    
   132   67  132 1    
   133   67  133 1    
   134   69   70 1    
   135   69  134 1    
   136   69  135 1    
   137   70   71 1    
   138   71  136 1    
   139   71  137 1    
@<TRIPOS>SUBSTRUCTURE
     1 UNK         1 GROUP             0       ****    0 ROOT    
