@<TRIPOS>MOLECULE
3R137
137   139    1
SMALL
USER_CHARGES


@<TRIPOS>ATOM
      1 CA         26.6323    0.8226   -1.9082 C.3       0 UNK        -0.2020 
      2 C          27.2529   -0.5436   -2.1385 C.2       0 UNK         0.4855 
      3 O          27.4040   -0.9595   -3.2882 O.2       0 UNK        -0.5197 
      4 N          27.6085   -1.2430   -1.0541 N.am      1 UNK        -0.4892 
      5 CA         28.1717   -2.5968   -1.0606 C.3       1 UNK         0.0835 
      6 C6         28.6454   -3.0446    0.3476 C.3       12 UNK        -0.0855 
      7 S7         29.7013   -1.8144    1.1897 S.3       12 UNK        -0.2931 
      8 C8         31.3734   -2.4109    0.7933 C.3       12 UNK         0.0378 
      9 C9         31.7053   -2.2431   -0.6825 C.ar      12 UNK        -0.0802 
     10 C10        31.8881   -3.3640   -1.4960 C.ar      12 UNK        -0.0944 
     11 C11        32.2320   -3.2220   -2.8434 C.ar      12 UNK        -0.0787 
     12 C12        32.4078   -1.9334   -3.3669 C.ar      12 UNK        -0.0862 
     13 C13        32.1870   -0.7999   -2.5762 C.ar      12 UNK        -0.0733 
     14 C14        31.8468   -0.9650   -1.2306 C.ar      12 UNK        -0.0832 
     15 C15        32.3406    0.6083   -3.1476 C.3       12 UNK         0.0240 
     16 S16        31.6331    0.8175   -4.8174 S.3       12 UNK        -0.2522 
     17 C17        29.8764    0.4226   -4.5352 C.3       12 UNK        -0.0967 
     18 CA         28.9870    0.8599   -5.7297 C.3       5 UNK         0.0660 
     19 N          27.9758   -0.1415   -6.0924 N.am      5 UNK        -0.4015 
     20 C          27.3871   -0.1650   -7.2991 C.2       4 UNK         0.4946 
     21 O          27.7169    0.5954   -8.2096 O.2       4 UNK        -0.5353 
     22 CA         26.2340   -1.1506   -7.5613 C.3       4 UNK         0.0277 
     23 CB         26.6672   -2.3061   -8.4814 C.3       4 UNK        -0.1981 
     24 N          25.5813   -1.7072   -6.3784 N.am      4 UNK        -0.4209 
     25 C          24.9359   -1.0308   -5.4239 C.2       3 UNK         0.4942 
     26 O          24.9038    0.1991   -5.3676 O.2       3 UNK        -0.5208 
     27 CA         24.2174   -1.8649   -4.3450 C.3       3 UNK         0.0250 
     28 CB         22.8430   -2.3449   -4.8476 C.3       3 UNK        -0.1990 
     29 N          25.0058   -2.9808   -3.7957 N.am      3 UNK        -0.4232 
     30 C          25.5006   -4.0739   -4.3978 C.2       2 UNK         0.4993 
     31 O          25.2970   -4.3482   -5.5820 O.2       2 UNK        -0.5286 
     32 CA         26.4266   -4.9760   -3.5501 C.3       2 UNK         0.0209 
     33 CB         27.1847   -6.0086   -4.4063 C.3       2 UNK        -0.1931 
     34 N          27.3981   -4.1860   -2.7809 N.am      2 UNK        -0.4546 
     35 C          27.1240   -3.5784   -1.6197 C.2       1 UNK         0.5154 
     36 O          26.0459   -3.7047   -1.0341 O.2       1 UNK        -0.5181 
     37 C          28.3607    2.2579   -5.5288 C.2       5 UNK         0.5014 
     38 O          29.0048    3.2522   -5.8639 O.2       5 UNK        -0.5248 
     39 N          27.0998    2.3238   -5.0651 N.am      6 UNK        -0.4434 
     40 CA         26.3320    3.5743   -4.9732 C.3       6 UNK         0.0363 
     41 CB         25.1324    3.4012   -4.0279 C.3       6 UNK        -0.1936 
     42 C          25.8657    4.0815   -6.3490 C.2       6 UNK         0.5081 
     43 O          25.6945    5.2877   -6.5232 O.2       6 UNK        -0.5248 
     44 N          25.7092    3.1620   -7.3115 N.am      7 UNK        -0.4718 
     45 CA         25.4393    3.4586   -8.7219 C.3       7 UNK         0.0273 
     46 CB         24.7680    2.2344   -9.3684 C.3       7 UNK        -0.1935 
     47 C          26.7045    3.8620   -9.5079 C.2       7 UNK         0.5018 
     48 O          26.5928    4.1586  -10.6979 O.2       7 UNK        -0.5186 
     49 N          27.8736    3.8477   -8.8462 N.am      8 UNK        -0.4240 
     50 CA         29.2138    4.1205   -9.3772 C.3       8 UNK         0.0235 
     51 CB         29.3316    5.5739   -9.8849 C.3       8 UNK        -0.2000 
     52 C          29.6852    3.0792  -10.4119 C.2       8 UNK         0.4941 
     53 O          30.5001    3.4046  -11.2767 O.2       8 UNK        -0.5273 
     54 N          29.1984    1.8370  -10.2851 N.am      9 UNK        -0.4262 
     55 CA         29.5661    0.6889  -11.1167 C.3       9 UNK         0.0264 
     56 CB         28.2806   -0.0183  -11.5832 C.3       9 UNK        -0.1955 
     57 C          30.5305   -0.2647  -10.3829 C.2       9 UNK         0.5031 
     58 O          30.6677   -1.4178  -10.7954 O.2       9 UNK        -0.5390 
     59 N          31.1832    0.2305   -9.3168 N.am      10 UNK        -0.4204 
     60 CA         32.2606   -0.4010   -8.5398 C.3       10 UNK         0.0237 
     61 CB         33.5787   -0.3449   -9.3409 C.3       10 UNK        -0.1985 
     62 C          31.9225   -1.8232   -8.0499 C.2       10 UNK         0.4970 
     63 O          32.7226   -2.7394   -8.2419 O.2       10 UNK        -0.4914 
     64 N          30.7186   -1.9670   -7.4772 N.am      11 UNK        -0.4285 
     65 CA         30.0720   -3.2176   -7.0366 C.3       11 UNK         0.1007 
     66 C          29.9190   -4.3389   -8.1121 C.2       11 UNK         0.5703 
     67 N          30.0388   -4.0443   -9.4022 N.am      11 UNK        -0.7361 
     68 O          29.6314   -5.4860   -7.7798 O.2       11 UNK        -0.4986 
     69 C69        30.5203   -3.7143   -5.6295 C.3       12 UNK        -0.0947 
     70 S70        32.2493   -4.2771   -5.4880 S.3       12 UNK        -0.2240 
     71 C71        32.4222   -4.4874   -3.6829 C.3       12 UNK         0.0194 
     72 H72        26.4472    1.0144   -0.8515 H         1 UNK         0.0906 
     73 H73        25.6807    0.8860   -2.4347 H         1 UNK         0.0906 
     74 H74        27.2925    1.6029   -2.2844 H         1 UNK         0.0906 
     75 H75        27.4670   -0.8474   -0.1356 H         1 UNK         0.3140 
     76 H76        29.0361   -2.5853   -1.7277 H         1 UNK         0.1085 
     77 H77        27.7887   -3.2240    1.0008 H         1 UNK         0.0836 
     78 H78        29.1766   -3.9963    0.2849 H         1 UNK         0.0836 
     79 H79        31.4717   -3.4519    1.1053 H         1 UNK         0.0731 
     80 H80        32.0963   -1.8473    1.3848 H         1 UNK         0.0731 
     81 H81        31.7716   -4.3541   -1.0762 H         1 UNK         0.1312 
     82 H82        32.6978   -1.8035   -4.3997 H         1 UNK         0.1406 
     83 H83        31.6934   -0.0987   -0.6011 H         1 UNK         0.1631 
     84 H84        33.4029    0.8520   -3.1873 H         1 UNK         0.0717 
     85 H85        31.8798    1.3439   -2.4864 H         1 UNK         0.0717 
     86 H86        29.8181   -0.6561   -4.3876 H         1 UNK         0.0934 
     87 H87        29.5468    0.8657   -3.5936 H         1 UNK         0.0934 
     88 H88        29.6375    0.9556   -6.6020 H         1 UNK         0.0739 
     89 H89        27.6326   -0.7328   -5.3410 H         1 UNK         0.3093 
     90 H90        25.4758   -0.5748   -8.0944 H         1 UNK         0.0818 
     91 H91        25.8196   -2.6758   -9.0587 H         1 UNK         0.0819 
     92 H92        27.4328   -2.0040   -9.1960 H         1 UNK         0.0819 
     93 H93        27.0617   -3.1522   -7.9208 H         1 UNK         0.0819 
     94 H94        25.5424   -2.7234   -6.3080 H         1 UNK         0.3041 
     95 H95        24.0422   -1.1908   -3.5050 H         1 UNK         0.0784 
     96 H96        22.2340   -1.5025   -5.1786 H         1 UNK         0.0793 
     97 H97        22.9321   -3.0309   -5.6906 H         1 UNK         0.0793 
     98 H98        22.2895   -2.8544   -4.0589 H         1 UNK         0.0793 
     99 H99        25.2639   -2.8705   -2.8217 H         1 UNK         0.3024 
    100 H100       25.7851   -5.5277   -2.8587 H         1 UNK         0.1171 
    101 H101       27.7749   -5.5322   -5.1893 H         1 UNK         0.0786 
    102 H102       27.8555   -6.6167   -3.7992 H         1 UNK         0.0786 
    103 H103       26.4895   -6.6903   -4.8982 H         1 UNK         0.0786 
    104 H104       28.2766   -3.9879   -3.2371 H         1 UNK         0.2977 
    105 H105       26.5910    1.4656   -4.8807 H         1 UNK         0.3127 
    106 H106       26.9800    4.3448   -4.5493 H         1 UNK         0.0770 
    107 H107       25.4564    3.2107   -3.0061 H         1 UNK         0.0814 
    108 H108       24.4796    2.5857   -4.3391 H         1 UNK         0.0814 
    109 H109       24.5254    4.3074   -4.0006 H         1 UNK         0.0814 
    110 H110       25.8557    2.1912   -7.0733 H         1 UNK         0.2983 
    111 H111       24.7425    4.2980   -8.7760 H         1 UNK         0.0947 
    112 H112       25.4574    1.3948   -9.4555 H         1 UNK         0.0806 
    113 H113       24.4221    2.4693  -10.3759 H         1 UNK         0.0806 
    114 H114       23.8996    1.9041   -8.7982 H         1 UNK         0.0806 
    115 H115       27.8475    3.5843   -7.8698 H         1 UNK         0.3000 
    116 H116       29.8918    4.0197   -8.5282 H         1 UNK         0.0850 
    117 H117       28.9950    6.2859   -9.1314 H         1 UNK         0.0810 
    118 H118       28.7443    5.7378  -10.7888 H         1 UNK         0.0810 
    119 H119       30.3666    5.8222  -10.1232 H         1 UNK         0.0810 
    120 H120       28.5521    1.6286   -9.5249 H         1 UNK         0.3040 
    121 H121       30.0955    1.0269  -12.0097 H         1 UNK         0.0766 
    122 H122       28.5044   -0.8891  -12.2007 H         1 UNK         0.0812 
    123 H123       27.6636    0.6507  -12.1831 H         1 UNK         0.0812 
    124 H124       27.6765   -0.3553  -10.7429 H         1 UNK         0.0812 
    125 H125       30.9683    1.1842   -9.0651 H         1 UNK         0.3205 
    126 H126       32.3972    0.2059   -7.6443 H         1 UNK         0.0754 
    127 H127       34.4146   -0.7215   -8.7498 H         1 UNK         0.0769 
    128 H128       33.8240    0.6769   -9.6305 H         1 UNK         0.0769 
    129 H129       33.5228   -0.9461  -10.2494 H         1 UNK         0.0769 
    130 H130       30.1421   -1.1430   -7.4116 H         1 UNK         0.2981 
    131 H131       29.0415   -2.9048   -6.8823 H         1 UNK         0.0541 
    132 H132       29.9192   -4.7781  -10.0815 H         1 UNK         0.3459 
    133 H133       30.2895   -3.1120   -9.7128 H         1 UNK         0.3459 
    134 H134       30.3551   -2.9134   -4.9104 H         1 UNK         0.0612 
    135 H135       29.8814   -4.5317   -5.2956 H         1 UNK         0.0612 
    136 H136       33.4159   -4.8880   -3.4797 H         1 UNK         0.0624 
    137 H137       31.7096   -5.2503   -3.3652 H         1 UNK         0.0624 
@<TRIPOS>BOND
     1    1    2 1    
     2    1   72 1    
     3    1   73 1    
     4    1   74 1    
     5    2    3 2    
     6    2    4 am   BACKBONE|DICT|INTERRES
     7    4    5 1    
     8    4   75 1    
     9    5    6 1    
    10    5   35 1    
    11    5   76 1    
    12    6    7 1    
    13    6   77 1    
    14    6   78 1    
    15    7    8 1    
    16    8    9 1    
    17    8   79 1    
    18    8   80 1    
    19    9   10 ar   
    20    9   14 ar   
    21   10   11 ar   
    22   10   81 1    
    23   11   12 ar   
    24   11   71 1    
    25   12   13 ar   
    26   12   82 1    
    27   13   14 ar   
    28   13   15 1    
    29   14   83 1    
    30   15   16 1    
    31   15   84 1    
    32   15   85 1    
    33   16   17 1    
    34   17   18 1    
    35   17   86 1    
    36   17   87 1    
    37   18   19 1    
    38   18   37 1    
    39   18   88 1    
    40   19   20 am   BACKBONE|DICT|INTERRES
    41   19   89 1    
    42   20   21 2    
    43   20   22 1    
    44   22   23 1    
    45   22   24 1    
    46   22   90 1    
    47   23   91 1    
    48   23   92 1    
    49   23   93 1    
    50   24   25 am   BACKBONE|DICT|INTERRES
    51   24   94 1    
    52   25   26 2    
    53   25   27 1    
    54   27   28 1    
    55   27   29 1    
    56   27   95 1    
    57   28   96 1    
    58   28   97 1    
    59   28   98 1    
    60   29   30 am   BACKBONE|DICT|INTERRES
    61   29   99 1    
    62   30   31 2    
    63   30   32 1    
    64   32   33 1    
    65   32   34 1    
    66   32  100 1    
    67   33  101 1    
    68   33  102 1    
    69   33  103 1    
    70   34   35 am   BACKBONE|DICT|INTERRES
    71   34  104 1    
    72   35   36 2    
    73   37   38 2    
    74   37   39 am   BACKBONE|DICT|INTERRES
    75   39   40 1    
    76   39  105 1    
    77   40   41 1    
    78   40   42 1    
    79   40  106 1    
    80   41  107 1    
    81   41  108 1    
    82   41  109 1    
    83   42   43 2    
    84   42   44 am   BACKBONE|DICT|INTERRES
    85   44   45 1    
    86   44  110 1    
    87   45   46 1    
    88   45   47 1    
    89   45  111 1    
    90   46  112 1    
    91   46  113 1    
    92   46  114 1    
    93   47   48 2    
    94   47   49 am   BACKBONE|DICT|INTERRES
    95   49   50 1    
    96   49  115 1    
    97   50   51 1    
    98   50   52 1    
    99   50  116 1    
   100   51  117 1    
   101   51  118 1    
   102   51  119 1    
   103   52   53 2    
   104   52   54 am   BACKBONE|DICT|INTERRES
   105   54   55 1    
   106   54  120 1    
   107   55   56 1    
   108   55   57 1    
   109   55  121 1    
   110   56  122 1    
   111   56  123 1    
   112   56  124 1    
   113   57   58 2    
   114   57   59 am   BACKBONE|DICT|INTERRES
   115   59   60 1    
   116   59  125 1    
   117   60   61 1    
   118   60   62 1    
   119   60  126 1    
   120   61  127 1    
   121   61  128 1    
   122   61  129 1    
   123   62   63 2    
   124   62   64 am   BACKBONE|DICT|INTERRES
   125   64   65 1    
   126   64  130 1    
   127   65   66 1    
   128   65   69 1    
   129   65  131 1    
   130   66   67 am   BACKBONE|DICT|INTERRES
   131   66   68 2    
   132   67  132 1    
   133   67  133 1    
   134   69   70 1    
   135   69  134 1    
   136   69  135 1    
   137   70   71 1    
   138   71  136 1    
   139   71  137 1    
@<TRIPOS>SUBSTRUCTURE
     1 UNK         1 GROUP             0       ****    0 ROOT    
