@<TRIPOS>MOLECULE
3R137
137   139    1
SMALL
USER_CHARGES


@<TRIPOS>ATOM
      1 CA         25.4456   -4.2902    2.2888 C.3       0 UNK        -0.2020 
      2 C          26.6368   -4.9434    1.5924 C.2       0 UNK         0.4855 
      3 O          26.7018   -6.1696    1.5346 O.2       0 UNK        -0.5197 
      4 N          27.6046   -4.1853    1.0567 N.am      1 UNK        -0.4892 
      5 CA         27.6650   -2.7178    0.9816 C.3       1 UNK         0.0835 
      6 C6         29.0983   -2.2142    0.6622 C.3       12 UNK        -0.0855 
      7 S7         29.9123   -3.0749   -0.7310 S.3       12 UNK        -0.2931 
      8 C8         29.6925   -1.8618   -2.0667 C.3       12 UNK         0.0378 
      9 C9         30.1082   -2.4279   -3.4164 C.ar      12 UNK        -0.0802 
     10 C10        31.1586   -1.8524   -4.1384 C.ar      12 UNK        -0.0944 
     11 C11        31.4940   -2.3239   -5.4166 C.ar      12 UNK        -0.0787 
     12 C12        30.7886   -3.4155   -5.9373 C.ar      12 UNK        -0.0862 
     13 C13        29.7474   -4.0098   -5.2194 C.ar      12 UNK        -0.0733 
     14 C14        29.4063   -3.5041   -3.9635 C.ar      12 UNK        -0.0832 
     15 C15        28.9932   -5.2007   -5.7963 C.3       12 UNK         0.0240 
     16 S16        27.8817   -4.7377   -7.1639 S.3       12 UNK        -0.2522 
     17 C17        26.6926   -3.6245   -6.3389 C.3       12 UNK        -0.0967 
     18 CA         26.4816   -2.3013   -7.1120 C.3       5 UNK         0.0660 
     19 N          25.2942   -1.5842   -6.6486 N.am      5 UNK        -0.4015 
     20 C          24.7065   -0.5789   -7.3131 C.2       4 UNK         0.4946 
     21 O          25.0619   -0.1871   -8.4251 O.2       4 UNK        -0.5353 
     22 CA         23.5567    0.1403   -6.5882 C.3       4 UNK         0.0277 
     23 CB         22.2381   -0.6315   -6.7581 C.3       4 UNK        -0.1981 
     24 N          23.8348    0.3409   -5.1626 N.am      4 UNK        -0.4209 
     25 C          24.8085    1.1351   -4.6935 C.2       3 UNK         0.4942 
     26 O          25.5286    1.8262   -5.4128 O.2       3 UNK        -0.5208 
     27 CA         25.0444    1.1351   -3.1735 C.3       3 UNK         0.0250 
     28 CB         24.1706    2.2014   -2.4943 C.3       3 UNK        -0.1990 
     29 N          24.8231   -0.1642   -2.5286 N.am      3 UNK        -0.4232 
     30 C          25.5054   -1.2865   -2.7972 C.2       2 UNK         0.4993 
     31 O          26.3660   -1.3744   -3.6757 O.2       2 UNK        -0.5286 
     32 CA         25.1507   -2.5264   -1.9576 C.3       2 UNK         0.0209 
     33 CB         24.8720   -3.7422   -2.8582 C.3       2 UNK        -0.1931 
     34 N          26.2009   -2.8762   -0.9971 N.am      2 UNK        -0.4546 
     35 C          26.6118   -2.1124    0.0266 C.2       1 UNK         0.5154 
     36 O          26.1584   -0.9935    0.2686 O.2       1 UNK        -0.5181 
     37 C          27.7179   -1.3816   -7.0826 C.2       5 UNK         0.5014 
     38 O          28.4599   -1.3507   -8.0635 O.2       5 UNK        -0.5248 
     39 N          27.8784   -0.5994   -6.0030 N.am      6 UNK        -0.4434 
     40 CA         28.9382    0.4032   -5.8603 C.3       6 UNK         0.0363 
     41 CB         28.8741    1.0575   -4.4724 C.3       6 UNK        -0.1936 
     42 C          28.9196    1.4772   -6.9574 C.2       6 UNK         0.5081 
     43 O          29.9865    1.8644   -7.4340 O.2       6 UNK        -0.5248 
     44 N          27.7211    1.9212   -7.3552 N.am      7 UNK        -0.4718 
     45 CA         27.5150    2.8246   -8.4857 C.3       7 UNK         0.0273 
     46 CB         26.0710    3.3520   -8.4713 C.3       7 UNK        -0.1935 
     47 C          27.8481    2.1570   -9.8304 C.2       7 UNK         0.5018 
     48 O          28.5838    2.7433  -10.6247 O.2       7 UNK        -0.5186 
     49 N          27.3182    0.9451  -10.0552 N.am      8 UNK        -0.4240 
     50 CA         27.4936    0.1744  -11.2906 C.3       8 UNK         0.0235 
     51 CB         26.5634   -1.0497  -11.2738 C.3       8 UNK        -0.2000 
     52 C          28.9470   -0.2555  -11.5540 C.2       8 UNK         0.4941 
     53 O          29.4259   -0.1039  -12.6785 O.2       8 UNK        -0.5273 
     54 N          29.6219   -0.7758  -10.5210 N.am      9 UNK        -0.4262 
     55 CA         31.0083   -1.2508  -10.5808 C.3       9 UNK         0.0264 
     56 CB         31.1668   -2.4420   -9.6227 C.3       9 UNK        -0.1955 
     57 C          32.0498   -0.1488  -10.3006 C.2       9 UNK         0.5031 
     58 O          33.2461   -0.4409  -10.3372 O.2       9 UNK        -0.5390 
     59 N          31.5919    1.0873  -10.0524 N.am      10 UNK        -0.4204 
     60 CA         32.3788    2.3124   -9.8696 C.3       10 UNK         0.0237 
     61 CB         33.1219    2.6876  -11.1702 C.3       10 UNK        -0.1985 
     62 C          33.2954    2.3006   -8.6292 C.2       10 UNK         0.4970 
     63 O          34.4129    2.8181   -8.6864 O.2       10 UNK        -0.4914 
     64 N          32.7838    1.7651   -7.5148 N.am      11 UNK        -0.4285 
     65 CA         33.3177    2.0240   -6.1677 C.3       11 UNK         0.1007 
     66 C          32.8549    3.4054   -5.6229 C.2       11 UNK         0.5703 
     67 N          31.6969    3.9168   -6.0303 N.am      11 UNK        -0.7361 
     68 O          33.5593    4.0211   -4.8264 O.2       11 UNK        -0.4986 
     69 C69        32.9432    0.9079   -5.1599 C.3       12 UNK        -0.0947 
     70 S70        33.8224   -0.6626   -5.4533 S.3       12 UNK        -0.2240 
     71 C71        32.5539   -1.6593   -6.3030 C.3       12 UNK         0.0194 
     72 H72        25.7639   -3.5350    3.0062 H         1 UNK         0.0906 
     73 H73        24.7757   -3.8306    1.5629 H         1 UNK         0.0906 
     74 H74        24.8730   -5.0372    2.8382 H         1 UNK         0.0906 
     75 H75        28.3863   -4.6496    0.6136 H         1 UNK         0.3140 
     76 H76        27.4210   -2.3295    1.9723 H         1 UNK         0.1085 
     77 H77        29.1112   -1.1345    0.4974 H         1 UNK         0.0836 
     78 H78        29.7277   -2.3729    1.5394 H         1 UNK         0.0836 
     79 H79        30.2614   -0.9616   -1.8286 H         1 UNK         0.0731 
     80 H80        28.6453   -1.5636   -2.1206 H         1 UNK         0.0731 
     81 H81        31.6858   -1.0158   -3.7062 H         1 UNK         0.1312 
     82 H82        31.0343   -3.7987   -6.9180 H         1 UNK         0.1406 
     83 H83        28.5916   -3.9445   -3.4051 H         1 UNK         0.1631 
     84 H84        28.4130   -5.7051   -5.0220 H         1 UNK         0.0717 
     85 H85        29.7120   -5.9351   -6.1628 H         1 UNK         0.0717 
     86 H86        25.7480   -4.1660   -6.2665 H         1 UNK         0.0934 
     87 H87        26.9987   -3.4245   -5.3129 H         1 UNK         0.0934 
     88 H88        26.3002   -2.5597   -8.1578 H         1 UNK         0.0739 
     89 H89        24.9794   -1.7945   -5.7134 H         1 UNK         0.3093 
     90 H90        23.4391    1.1232   -7.0504 H         1 UNK         0.0818 
     91 H91        21.4013   -0.0879   -6.3186 H         1 UNK         0.0819 
     92 H92        22.0070   -0.7781   -7.8143 H         1 UNK         0.0819 
     93 H93        22.2794   -1.6178   -6.2940 H         1 UNK         0.0819 
     94 H94        23.2734   -0.1765   -4.5018 H         1 UNK         0.3041 
     95 H95        26.0896    1.4013   -3.0063 H         1 UNK         0.0784 
     96 H96        24.3359    3.1833   -2.9407 H         1 UNK         0.0793 
     97 H97        23.1075    1.9753   -2.5885 H         1 UNK         0.0793 
     98 H98        24.4038    2.2883   -1.4327 H         1 UNK         0.0793 
     99 H99        24.1553   -0.1766   -1.7707 H         1 UNK         0.3024 
    100 H100       24.2403   -2.3147   -1.3924 H         1 UNK         0.1171 
    101 H101       24.4917   -4.5836   -2.2785 H         1 UNK         0.0786 
    102 H102       24.1228   -3.5089   -3.6160 H         1 UNK         0.0786 
    103 H103       25.7707   -4.0763   -3.3767 H         1 UNK         0.0786 
    104 H104       26.6417   -3.7770   -1.1139 H         1 UNK         0.2977 
    105 H105       27.2573   -0.7320   -5.2077 H         1 UNK         0.3127 
    106 H106       29.8825   -0.1304   -5.9517 H         1 UNK         0.0770 
    107 H107       27.9931    1.6890   -4.3660 H         1 UNK         0.0814 
    108 H108       29.7447    1.6915   -4.3006 H         1 UNK         0.0814 
    109 H109       28.8491    0.3136   -3.6789 H         1 UNK         0.0814 
    110 H110       26.8956    1.6177   -6.8465 H         1 UNK         0.2983 
    111 H111       28.1878    3.6765   -8.3628 H         1 UNK         0.0947 
    112 H112       25.8993    4.0437   -9.2972 H         1 UNK         0.0806 
    113 H113       25.8566    3.8892   -7.5472 H         1 UNK         0.0806 
    114 H114       25.3424    2.5456   -8.5624 H         1 UNK         0.0806 
    115 H115       26.7070    0.5415   -9.3506 H         1 UNK         0.3000 
    116 H116       27.1886    0.8167  -12.1197 H         1 UNK         0.0850 
    117 H117       26.6578   -1.6265  -12.1949 H         1 UNK         0.0810 
    118 H118       25.5184   -0.7521  -11.1830 H         1 UNK         0.0810 
    119 H119       26.7932   -1.7185  -10.4438 H         1 UNK         0.0810 
    120 H120       29.1429   -0.8943   -9.6257 H         1 UNK         0.3040 
    121 H121       31.2147   -1.6164  -11.5890 H         1 UNK         0.0766 
    122 H122       30.8867   -2.1698   -8.6080 H         1 UNK         0.0812 
    123 H123       32.1949   -2.8062   -9.5989 H         1 UNK         0.0812 
    124 H124       30.5333   -3.2766   -9.9243 H         1 UNK         0.0812 
    125 H125       30.5882    1.2103  -10.0152 H         1 UNK         0.3205 
    126 H126       31.6468    3.0996   -9.6812 H         1 UNK         0.0754 
    127 H127       33.5849    3.6718  -11.0877 H         1 UNK         0.0769 
    128 H128       32.4397    2.7232  -12.0195 H         1 UNK         0.0769 
    129 H129       33.9133    1.9749  -11.4045 H         1 UNK         0.0769 
    130 H130       31.8163    1.4585   -7.5516 H         1 UNK         0.2981 
    131 H131       34.4072    2.0625   -6.2254 H         1 UNK         0.0541 
    132 H132       31.0942    3.3884   -6.6496 H         1 UNK         0.3459 
    133 H133       31.4029    4.8144   -5.6803 H         1 UNK         0.3459 
    134 H134       31.8670    0.7452   -5.1658 H         1 UNK         0.0612 
    135 H135       33.1948    1.2103   -4.1414 H         1 UNK         0.0612 
    136 H136       33.0754   -2.4285   -6.8740 H         1 UNK         0.0624 
    137 H137       32.0536   -1.0220   -7.0316 H         1 UNK         0.0624 
@<TRIPOS>BOND
     1    1    2 1    
     2    1   72 1    
     3    1   73 1    
     4    1   74 1    
     5    2    3 2    
     6    2    4 am   BACKBONE|DICT|INTERRES
     7    4    5 1    
     8    4   75 1    
     9    5    6 1    
    10    5   35 1    
    11    5   76 1    
    12    6    7 1    
    13    6   77 1    
    14    6   78 1    
    15    7    8 1    
    16    8    9 1    
    17    8   79 1    
    18    8   80 1    
    19    9   10 ar   
    20    9   14 ar   
    21   10   11 ar   
    22   10   81 1    
    23   11   12 ar   
    24   11   71 1    
    25   12   13 ar   
    26   12   82 1    
    27   13   14 ar   
    28   13   15 1    
    29   14   83 1    
    30   15   16 1    
    31   15   84 1    
    32   15   85 1    
    33   16   17 1    
    34   17   18 1    
    35   17   86 1    
    36   17   87 1    
    37   18   19 1    
    38   18   37 1    
    39   18   88 1    
    40   19   20 am   BACKBONE|DICT|INTERRES
    41   19   89 1    
    42   20   21 2    
    43   20   22 1    
    44   22   23 1    
    45   22   24 1    
    46   22   90 1    
    47   23   91 1    
    48   23   92 1    
    49   23   93 1    
    50   24   25 am   BACKBONE|DICT|INTERRES
    51   24   94 1    
    52   25   26 2    
    53   25   27 1    
    54   27   28 1    
    55   27   29 1    
    56   27   95 1    
    57   28   96 1    
    58   28   97 1    
    59   28   98 1    
    60   29   30 am   BACKBONE|DICT|INTERRES
    61   29   99 1    
    62   30   31 2    
    63   30   32 1    
    64   32   33 1    
    65   32   34 1    
    66   32  100 1    
    67   33  101 1    
    68   33  102 1    
    69   33  103 1    
    70   34   35 am   BACKBONE|DICT|INTERRES
    71   34  104 1    
    72   35   36 2    
    73   37   38 2    
    74   37   39 am   BACKBONE|DICT|INTERRES
    75   39   40 1    
    76   39  105 1    
    77   40   41 1    
    78   40   42 1    
    79   40  106 1    
    80   41  107 1    
    81   41  108 1    
    82   41  109 1    
    83   42   43 2    
    84   42   44 am   BACKBONE|DICT|INTERRES
    85   44   45 1    
    86   44  110 1    
    87   45   46 1    
    88   45   47 1    
    89   45  111 1    
    90   46  112 1    
    91   46  113 1    
    92   46  114 1    
    93   47   48 2    
    94   47   49 am   BACKBONE|DICT|INTERRES
    95   49   50 1    
    96   49  115 1    
    97   50   51 1    
    98   50   52 1    
    99   50  116 1    
   100   51  117 1    
   101   51  118 1    
   102   51  119 1    
   103   52   53 2    
   104   52   54 am   BACKBONE|DICT|INTERRES
   105   54   55 1    
   106   54  120 1    
   107   55   56 1    
   108   55   57 1    
   109   55  121 1    
   110   56  122 1    
   111   56  123 1    
   112   56  124 1    
   113   57   58 2    
   114   57   59 am   BACKBONE|DICT|INTERRES
   115   59   60 1    
   116   59  125 1    
   117   60   61 1    
   118   60   62 1    
   119   60  126 1    
   120   61  127 1    
   121   61  128 1    
   122   61  129 1    
   123   62   63 2    
   124   62   64 am   BACKBONE|DICT|INTERRES
   125   64   65 1    
   126   64  130 1    
   127   65   66 1    
   128   65   69 1    
   129   65  131 1    
   130   66   67 am   BACKBONE|DICT|INTERRES
   131   66   68 2    
   132   67  132 1    
   133   67  133 1    
   134   69   70 1    
   135   69  134 1    
   136   69  135 1    
   137   70   71 1    
   138   71  136 1    
   139   71  137 1    
@<TRIPOS>SUBSTRUCTURE
     1 UNK         1 GROUP             0       ****    0 ROOT    
