@<TRIPOS>MOLECULE
3R137
137   139    1
SMALL
USER_CHARGES


@<TRIPOS>ATOM
      1 CA         24.6480   -6.5616   -4.1255 C.3       0 UNK        -0.2020 
      2 C          25.6685   -5.4973   -3.7526 C.2       0 UNK         0.4855 
      3 O          26.0311   -4.6800   -4.5974 O.2       0 UNK        -0.5197 
      4 N          26.1208   -5.4937   -2.4905 N.am      1 UNK        -0.4892 
      5 CA         27.1170   -4.5708   -1.9272 C.3       1 UNK         0.0835 
      6 C6         28.5426   -4.8232   -2.4978 C.3       12 UNK        -0.0855 
      7 S7         29.8395   -4.5438   -1.2472 S.3       12 UNK        -0.2931 
      8 C8         31.2544   -4.0275   -2.2807 C.3       12 UNK         0.0378 
      9 C9         31.1521   -2.6019   -2.8188 C.ar      12 UNK        -0.0802 
     10 C10        31.5967   -2.3145   -4.1132 C.ar      12 UNK        -0.0944 
     11 C11        31.5508   -1.0073   -4.6096 C.ar      12 UNK        -0.0787 
     12 C12        31.0347    0.0168   -3.8111 C.ar      12 UNK        -0.0862 
     13 C13        30.5827   -0.2556   -2.5181 C.ar      12 UNK        -0.0733 
     14 C14        30.6613   -1.5610   -2.0238 C.ar      12 UNK        -0.0832 
     15 C15        30.0177    0.8501   -1.6401 C.3       12 UNK         0.0240 
     16 S16        28.2660    0.5453   -1.2546 S.3       12 UNK        -0.2522 
     17 C17        27.3750    1.7004   -2.3435 C.3       12 UNK        -0.0967 
     18 CA         27.6454    1.5963   -3.8700 C.3       5 UNK         0.0660 
     19 N          27.5020    0.2453   -4.4331 N.am      5 UNK        -0.4015 
     20 C          27.7677   -0.0672   -5.7152 C.2       4 UNK         0.4946 
     21 O          28.2429    0.7238   -6.5312 O.2       4 UNK        -0.5353 
     22 CA         27.3822   -1.4729   -6.2047 C.3       4 UNK         0.0277 
     23 CB         28.4894   -2.4868   -5.8888 C.3       4 UNK        -0.1981 
     24 N          26.1020   -1.9264   -5.6566 N.am      4 UNK        -0.4209 
     25 C          24.9233   -1.3418   -5.9212 C.2       3 UNK         0.4942 
     26 O          24.7847   -0.4083   -6.7097 O.2       3 UNK        -0.5208 
     27 CA         23.6999   -1.8308   -5.1309 C.3       3 UNK         0.0250 
     28 CB         23.0956   -3.0949   -5.7622 C.3       3 UNK        -0.1990 
     29 N          24.0167   -2.0635   -3.7208 N.am      3 UNK        -0.4232 
     30 C          24.3616   -1.0931   -2.8610 C.2       2 UNK         0.4993 
     31 O          24.3756    0.1031   -3.1523 O.2       2 UNK        -0.5286 
     32 CA         24.8002   -1.5281   -1.4523 C.3       2 UNK         0.0209 
     33 CB         23.5990   -1.5411   -0.4939 C.3       2 UNK        -0.1931 
     34 N          25.4661   -2.8354   -1.4233 N.am      2 UNK        -0.4546 
     35 C          26.6360   -3.1039   -2.0235 C.2       1 UNK         0.5154 
     36 O          27.2600   -2.2707   -2.6810 O.2       1 UNK        -0.5181 
     37 C          26.7456    2.6156   -4.5991 C.2       5 UNK         0.5014 
     38 O          27.2281    3.6801   -4.9876 O.2       5 UNK        -0.5248 
     39 N          25.4575    2.2733   -4.7557 N.am      6 UNK        -0.4434 
     40 CA         24.4408    3.1106   -5.3955 C.3       6 UNK         0.0363 
     41 CB         23.0510    2.4926   -5.1730 C.3       6 UNK        -0.1936 
     42 C          24.6991    3.3423   -6.8927 C.2       6 UNK         0.5081 
     43 O          24.5638    4.4737   -7.3602 O.2       6 UNK        -0.5248 
     44 N          25.0651    2.2762   -7.6165 N.am      7 UNK        -0.4718 
     45 CA         25.3847    2.3226   -9.0450 C.3       7 UNK         0.0273 
     46 CB         25.3568    0.8959   -9.6179 C.3       7 UNK        -0.1935 
     47 C          26.7409    2.9806   -9.3449 C.2       7 UNK         0.5018 
     48 O          26.9027    3.5317  -10.4344 O.2       7 UNK        -0.5186 
     49 N          27.6872    2.8794   -8.3972 N.am      8 UNK        -0.4240 
     50 CA         29.1068    3.2344   -8.5169 C.3       8 UNK         0.0235 
     51 CB         29.2918    4.7587   -8.6747 C.3       8 UNK        -0.2000 
     52 C          29.7962    2.4113   -9.6233 C.2       8 UNK         0.4941 
     53 O          30.5320    2.9640  -10.4439 O.2       8 UNK        -0.5273 
     54 N          29.5049    1.1051   -9.6383 N.am      9 UNK        -0.4262 
     55 CA         29.9666    0.1383  -10.6307 C.3       9 UNK         0.0264 
     56 CB         28.7396   -0.4988  -11.3048 C.3       9 UNK        -0.1955 
     57 C          30.8086   -0.9324   -9.9310 C.2       9 UNK         0.5031 
     58 O          30.5200   -1.2661   -8.7807 O.2       9 UNK        -0.5390 
     59 N          31.8067   -1.4624  -10.6521 N.am      10 UNK        -0.4204 
     60 CA         32.8515   -2.3799  -10.1762 C.3       10 UNK         0.0237 
     61 CB         32.2495   -3.7068   -9.6544 C.3       10 UNK        -0.1985 
     62 C          33.8056   -1.6854   -9.1801 C.2       10 UNK         0.4970 
     63 O          33.9689   -0.4664   -9.2614 O.2       10 UNK        -0.4914 
     64 N          34.4467   -2.4769   -8.3067 N.am      11 UNK        -0.4285 
     65 CA         35.3986   -2.0841   -7.2461 C.3       11 UNK         0.1007 
     66 C          36.6218   -1.2111   -7.6709 C.2       11 UNK         0.5703 
     67 N          37.0034   -1.1889   -8.9423 N.am      11 UNK        -0.7361 
     68 O          37.2701   -0.5854   -6.8349 O.2       11 UNK        -0.4986 
     69 C69        34.7053   -1.6361   -5.9234 C.3       12 UNK        -0.0947 
     70 S70        33.7571   -0.0771   -6.0052 S.3       12 UNK        -0.2240 
     71 C71        32.0448   -0.6947   -6.0128 C.3       12 UNK         0.0194 
     72 H72        25.0020   -7.1338   -4.9826 H         1 UNK         0.0906 
     73 H73        24.4647   -7.2573   -3.3070 H         1 UNK         0.0906 
     74 H74        23.7004   -6.0964   -4.3951 H         1 UNK         0.0906 
     75 H75        25.7687   -6.1888   -1.8457 H         1 UNK         0.3140 
     76 H76        27.1408   -4.8029   -0.8608 H         1 UNK         0.1085 
     77 H77        28.7347   -4.2342   -3.3943 H         1 UNK         0.0836 
     78 H78        28.6408   -5.8632   -2.8128 H         1 UNK         0.0836 
     79 H79        31.3680   -4.7414   -3.0982 H         1 UNK         0.0731 
     80 H80        32.1630   -4.0994   -1.6818 H         1 UNK         0.0731 
     81 H81        31.9843   -3.1094   -4.7348 H         1 UNK         0.1312 
     82 H82        30.9897    1.0246   -4.2000 H         1 UNK         0.1406 
     83 H83        30.3186   -1.7658   -1.0190 H         1 UNK         0.1631 
     84 H84        30.1408    1.8314   -2.1002 H         1 UNK         0.0717 
     85 H85        30.5805    0.8789   -0.7061 H         1 UNK         0.0717 
     86 H86        26.3136    1.5610   -2.1330 H         1 UNK         0.0934 
     87 H87        27.6074    2.7097   -1.9970 H         1 UNK         0.0934 
     88 H88        28.6775    1.8995   -4.0511 H         1 UNK         0.0739 
     89 H89        27.1945   -0.4888   -3.8028 H         1 UNK         0.3093 
     90 H90        27.2722   -1.4277   -7.2904 H         1 UNK         0.0818 
     91 H91        29.3981   -2.2459   -6.4413 H         1 UNK         0.0819 
     92 H92        28.7462   -2.4783   -4.8307 H         1 UNK         0.0819 
     93 H93        28.1995   -3.5013   -6.1618 H         1 UNK         0.0819 
     94 H94        26.1303   -2.7214   -5.0239 H         1 UNK         0.3041 
     95 H95        22.9443   -1.0433   -5.1728 H         1 UNK         0.0784 
     96 H96        22.7840   -2.9001   -6.7893 H         1 UNK         0.0793 
     97 H97        23.8084   -3.9181   -5.7941 H         1 UNK         0.0793 
     98 H98        22.2145   -3.4314   -5.2157 H         1 UNK         0.0793 
     99 H99        24.0619   -3.0219   -3.4089 H         1 UNK         0.3024 
    100 H100       25.5155   -0.7839   -1.0955 H         1 UNK         0.1171 
    101 H101       23.9095   -1.7549    0.5290 H         1 UNK         0.0786 
    102 H102       23.1001   -0.5708   -0.4825 H         1 UNK         0.0786 
    103 H103       22.8568   -2.2859   -0.7840 H         1 UNK         0.0786 
    104 H104       24.9949   -3.5776   -0.9260 H         1 UNK         0.2977 
    105 H105       25.1343    1.3948   -4.3554 H         1 UNK         0.3127 
    106 H106       24.4601    4.0852   -4.9032 H         1 UNK         0.0770 
    107 H107       22.9752    1.5000   -5.6181 H         1 UNK         0.0814 
    108 H108       22.2718    3.1119   -5.6192 H         1 UNK         0.0814 
    109 H109       22.8239    2.3996   -4.1108 H         1 UNK         0.0814 
    110 H110       25.0922    1.3602   -7.1705 H         1 UNK         0.2983 
    111 H111       24.6145    2.9095   -9.5504 H         1 UNK         0.0947 
    112 H112       25.5658    0.8988  -10.6886 H         1 UNK         0.0806 
    113 H113       24.3804    0.4315   -9.4784 H         1 UNK         0.0806 
    114 H114       26.1014    0.2567   -9.1412 H         1 UNK         0.0806 
    115 H115       27.4567    2.3548   -7.5595 H         1 UNK         0.3000 
    116 H116       29.5764    2.9405   -7.5767 H         1 UNK         0.0850 
    117 H117       30.3483    5.0271   -8.6422 H         1 UNK         0.0810 
    118 H118       28.7938    5.3015   -7.8712 H         1 UNK         0.0810 
    119 H119       28.8944    5.1221   -9.6228 H         1 UNK         0.0810 
    120 H120       28.9917    0.7170   -8.8556 H         1 UNK         0.3040 
    121 H121       30.5760    0.6295  -11.3922 H         1 UNK         0.0766 
    122 H122       28.1233    0.2548  -11.7956 H         1 UNK         0.0812 
    123 H123       28.1121   -1.0262  -10.5849 H         1 UNK         0.0812 
    124 H124       29.0403   -1.2194  -12.0663 H         1 UNK         0.0812 
    125 H125       31.9519   -1.1018  -11.5851 H         1 UNK         0.3205 
    126 H126       33.4562   -2.6185  -11.0523 H         1 UNK         0.0754 
    127 H127       33.0144   -4.4761   -9.5443 H         1 UNK         0.0769 
    128 H128       31.5061   -4.1003  -10.3479 H         1 UNK         0.0769 
    129 H129       31.7637   -3.5836   -8.6855 H         1 UNK         0.0769 
    130 H130       34.2613   -3.4675   -8.3595 H         1 UNK         0.2981 
    131 H131       35.8801   -3.0296   -6.9942 H         1 UNK         0.0541 
    132 H132       37.8033   -0.6361   -9.2072 H         1 UNK         0.3459 
    133 H133       36.4851   -1.6958   -9.6409 H         1 UNK         0.3459 
    134 H134       35.4464   -1.5270   -5.1302 H         1 UNK         0.0612 
    135 H135       34.0498   -2.4356   -5.5810 H         1 UNK         0.0612 
    136 H136       31.3986    0.0563   -6.4704 H         1 UNK         0.0624 
    137 H137       31.9793   -1.5802   -6.6456 H         1 UNK         0.0624 
@<TRIPOS>BOND
     1    1    2 1    
     2    1   72 1    
     3    1   73 1    
     4    1   74 1    
     5    2    3 2    
     6    2    4 am   BACKBONE|DICT|INTERRES
     7    4    5 1    
     8    4   75 1    
     9    5    6 1    
    10    5   35 1    
    11    5   76 1    
    12    6    7 1    
    13    6   77 1    
    14    6   78 1    
    15    7    8 1    
    16    8    9 1    
    17    8   79 1    
    18    8   80 1    
    19    9   10 ar   
    20    9   14 ar   
    21   10   11 ar   
    22   10   81 1    
    23   11   12 ar   
    24   11   71 1    
    25   12   13 ar   
    26   12   82 1    
    27   13   14 ar   
    28   13   15 1    
    29   14   83 1    
    30   15   16 1    
    31   15   84 1    
    32   15   85 1    
    33   16   17 1    
    34   17   18 1    
    35   17   86 1    
    36   17   87 1    
    37   18   19 1    
    38   18   37 1    
    39   18   88 1    
    40   19   20 am   BACKBONE|DICT|INTERRES
    41   19   89 1    
    42   20   21 2    
    43   20   22 1    
    44   22   23 1    
    45   22   24 1    
    46   22   90 1    
    47   23   91 1    
    48   23   92 1    
    49   23   93 1    
    50   24   25 am   BACKBONE|DICT|INTERRES
    51   24   94 1    
    52   25   26 2    
    53   25   27 1    
    54   27   28 1    
    55   27   29 1    
    56   27   95 1    
    57   28   96 1    
    58   28   97 1    
    59   28   98 1    
    60   29   30 am   BACKBONE|DICT|INTERRES
    61   29   99 1    
    62   30   31 2    
    63   30   32 1    
    64   32   33 1    
    65   32   34 1    
    66   32  100 1    
    67   33  101 1    
    68   33  102 1    
    69   33  103 1    
    70   34   35 am   BACKBONE|DICT|INTERRES
    71   34  104 1    
    72   35   36 2    
    73   37   38 2    
    74   37   39 am   BACKBONE|DICT|INTERRES
    75   39   40 1    
    76   39  105 1    
    77   40   41 1    
    78   40   42 1    
    79   40  106 1    
    80   41  107 1    
    81   41  108 1    
    82   41  109 1    
    83   42   43 2    
    84   42   44 am   BACKBONE|DICT|INTERRES
    85   44   45 1    
    86   44  110 1    
    87   45   46 1    
    88   45   47 1    
    89   45  111 1    
    90   46  112 1    
    91   46  113 1    
    92   46  114 1    
    93   47   48 2    
    94   47   49 am   BACKBONE|DICT|INTERRES
    95   49   50 1    
    96   49  115 1    
    97   50   51 1    
    98   50   52 1    
    99   50  116 1    
   100   51  117 1    
   101   51  118 1    
   102   51  119 1    
   103   52   53 2    
   104   52   54 am   BACKBONE|DICT|INTERRES
   105   54   55 1    
   106   54  120 1    
   107   55   56 1    
   108   55   57 1    
   109   55  121 1    
   110   56  122 1    
   111   56  123 1    
   112   56  124 1    
   113   57   58 2    
   114   57   59 am   BACKBONE|DICT|INTERRES
   115   59   60 1    
   116   59  125 1    
   117   60   61 1    
   118   60   62 1    
   119   60  126 1    
   120   61  127 1    
   121   61  128 1    
   122   61  129 1    
   123   62   63 2    
   124   62   64 am   BACKBONE|DICT|INTERRES
   125   64   65 1    
   126   64  130 1    
   127   65   66 1    
   128   65   69 1    
   129   65  131 1    
   130   66   67 am   BACKBONE|DICT|INTERRES
   131   66   68 2    
   132   67  132 1    
   133   67  133 1    
   134   69   70 1    
   135   69  134 1    
   136   69  135 1    
   137   70   71 1    
   138   71  136 1    
   139   71  137 1    
@<TRIPOS>SUBSTRUCTURE
     1 UNK         1 GROUP             0       ****    0 ROOT    
