@<TRIPOS>MOLECULE
3R137
137   139    1
SMALL
USER_CHARGES


@<TRIPOS>ATOM
      1 CA         30.2238    1.4075   -1.7556 C.3       0 UNK        -0.2020 
      2 C          29.5448    0.0589   -1.9344 C.2       0 UNK         0.4855 
      3 O          29.0692   -0.2410   -3.0277 O.2       0 UNK        -0.5197 
      4 N          29.5099   -0.7644   -0.8799 N.am      1 UNK        -0.4892 
      5 CA         28.8216   -2.0585   -0.8668 C.3       1 UNK         0.0835 
      6 C6         29.3148   -2.9274    0.3167 C.3       12 UNK        -0.0855 
      7 S7         28.8158   -4.6780    0.1825 S.3       12 UNK        -0.2931 
      8 C8         30.3279   -5.4541   -0.4741 C.3       12 UNK         0.0378 
      9 C9         30.6106   -5.0416   -1.9125 C.ar      12 UNK        -0.0802 
     10 C10        31.7650   -4.3192   -2.2314 C.ar      12 UNK        -0.0944 
     11 C11        32.0536   -3.9692   -3.5560 C.ar      12 UNK        -0.0787 
     12 C12        31.1503   -4.3385   -4.5616 C.ar      12 UNK        -0.0862 
     13 C13        29.9765   -5.0315   -4.2530 C.ar      12 UNK        -0.0733 
     14 C14        29.7219   -5.3979   -2.9298 C.ar      12 UNK        -0.0832 
     15 C15        28.9787   -5.3785   -5.3497 C.3       12 UNK         0.0240 
     16 S16        27.4133   -4.4662   -5.1542 S.3       12 UNK        -0.2522 
     17 C17        27.9500   -2.7287   -5.3220 C.3       12 UNK        -0.0967 
     18 CA         27.1955   -1.9642   -6.4376 C.3       5 UNK         0.0660 
     19 N          25.7406   -2.0216   -6.2860 N.am      5 UNK        -0.4015 
     20 C          24.8597   -1.8572   -7.2820 C.2       4 UNK         0.4946 
     21 O          25.1800   -1.6985   -8.4601 O.2       4 UNK        -0.5353 
     22 CA         23.3649   -1.8669   -6.9105 C.3       4 UNK         0.0277 
     23 CB         22.7811   -3.2788   -7.0813 C.3       4 UNK        -0.1981 
     24 N          23.0998   -1.3965   -5.5483 N.am      4 UNK        -0.4209 
     25 C          23.2481   -0.1280   -5.1401 C.2       3 UNK         0.4942 
     26 O          23.5685    0.7976   -5.8844 O.2       3 UNK        -0.5208 
     27 CA         23.0565    0.1429   -3.6353 C.3       3 UNK         0.0250 
     28 CB         21.5796    0.4335   -3.3242 C.3       3 UNK        -0.1990 
     29 N          23.5415   -0.9357   -2.7611 N.am      3 UNK        -0.4232 
     30 C          24.7954   -1.4097   -2.7616 C.2       2 UNK         0.4993 
     31 O          25.6645   -1.0186   -3.5427 O.2       2 UNK        -0.5286 
     32 CA         25.1107   -2.5538   -1.7841 C.3       2 UNK         0.0209 
     33 CB         24.5678   -3.8864   -2.3272 C.3       2 UNK        -0.1931 
     34 N          26.5547   -2.6860   -1.5775 N.am      2 UNK        -0.4546 
     35 C          27.2917   -1.8461   -0.8396 C.2       1 UNK         0.5154 
     36 O          26.8108   -0.9478   -0.1414 O.2       1 UNK        -0.5181 
     37 C          27.6470   -0.4947   -6.4911 C.2       5 UNK         0.5014 
     38 O          28.3893   -0.1194   -7.3965 O.2       5 UNK        -0.5248 
     39 N          27.1444    0.3197   -5.5513 N.am      6 UNK        -0.4434 
     40 CA         27.4248    1.7529   -5.4209 C.3       6 UNK         0.0363 
     41 CB         26.7482    2.2767   -4.1440 C.3       6 UNK        -0.1936 
     42 C          26.9949    2.5947   -6.6376 C.2       6 UNK         0.5081 
     43 O          27.5466    3.6747   -6.8485 O.2       6 UNK        -0.5248 
     44 N          26.0252    2.0933   -7.4140 N.am      7 UNK        -0.4718 
     45 CA         25.5621    2.6804   -8.6717 C.3       7 UNK         0.0273 
     46 CB         24.2116    2.0469   -9.0451 C.3       7 UNK        -0.1935 
     47 C          26.5608    2.5385   -9.8381 C.2       7 UNK         0.5018 
     48 O          26.4149    3.2602  -10.8266 O.2       7 UNK        -0.5186 
     49 N          27.5309    1.6172   -9.7360 N.am      8 UNK        -0.4240 
     50 CA         28.5668    1.3990  -10.7491 C.3       8 UNK         0.0235 
     51 CB         29.1165   -0.0306  -10.6068 C.3       8 UNK        -0.2000 
     52 C          29.6974    2.4389  -10.6457 C.2       8 UNK         0.4941 
     53 O          29.8051    3.1542   -9.6473 O.2       8 UNK        -0.5273 
     54 N          30.5410    2.4892  -11.6858 N.am      9 UNK        -0.4262 
     55 CA         31.6766    3.4129  -11.8056 C.3       9 UNK         0.0264 
     56 CB         32.1840    3.3927  -13.2575 C.3       9 UNK        -0.1955 
     57 C          32.8379    3.1373  -10.8285 C.2       9 UNK         0.5031 
     58 O          33.6730    4.0216  -10.6303 O.2       9 UNK        -0.5390 
     59 N          32.8835    1.9349  -10.2465 N.am      10 UNK        -0.4204 
     60 CA         33.8544    1.4986   -9.2487 C.3       10 UNK         0.0237 
     61 CB         35.0931    0.9106   -9.9497 C.3       10 UNK        -0.1985 
     62 C          33.1795    0.4614   -8.3440 C.2       10 UNK         0.4970 
     63 O          32.1640   -0.1166   -8.7396 O.2       10 UNK        -0.4914 
     64 N          33.7719    0.2285   -7.1663 N.am      11 UNK        -0.4285 
     65 CA         33.2532   -0.6543   -6.1077 C.3       11 UNK         0.1007 
     66 C          31.9625   -0.0825   -5.4389 C.2       11 UNK         0.5703 
     67 N          31.1445   -0.9159   -4.8127 N.am      11 UNK        -0.7361 
     68 O          31.7345    1.1259   -5.4237 O.2       11 UNK        -0.4986 
     69 C69        33.1497   -2.1472   -6.5678 C.3       12 UNK        -0.0947 
     70 S70        34.0412   -3.3544   -5.5187 S.3       12 UNK        -0.2240 
     71 C71        33.3390   -3.1837   -3.8374 C.3       12 UNK         0.0194 
     72 H72        30.6362    1.5291   -0.7543 H         1 UNK         0.0906 
     73 H73        31.0363    1.5135   -2.4743 H         1 UNK         0.0906 
     74 H74        29.5087    2.2106   -1.9309 H         1 UNK         0.0906 
     75 H75        29.8847   -0.4552    0.0053 H         1 UNK         0.3140 
     76 H76        29.0798   -2.5685   -1.7984 H         1 UNK         0.1085 
     77 H77        28.9485   -2.5320    1.2663 H         1 UNK         0.0836 
     78 H78        30.4034   -2.8852    0.3805 H         1 UNK         0.0836 
     79 H79        30.2098   -6.5380   -0.4360 H         1 UNK         0.0731 
     80 H80        31.1704   -5.2176    0.1778 H         1 UNK         0.0731 
     81 H81        32.4512   -4.0376   -1.4440 H         1 UNK         0.1312 
     82 H82        31.3452   -4.0956   -5.5932 H         1 UNK         0.1406 
     83 H83        28.8210   -5.9464   -2.6888 H         1 UNK         0.1631 
     84 H84        28.7706   -6.4489   -5.3204 H         1 UNK         0.0717 
     85 H85        29.3911   -5.1724   -6.3386 H         1 UNK         0.0717 
     86 H86        27.8196   -2.2455   -4.3527 H         1 UNK         0.0934 
     87 H87        29.0206   -2.6965   -5.5253 H         1 UNK         0.0934 
     88 H88        27.4597   -2.4265   -7.3914 H         1 UNK         0.0739 
     89 H89        25.4054   -2.0709   -5.3328 H         1 UNK         0.3093 
     90 H90        22.8514   -1.1975   -7.6045 H         1 UNK         0.0818 
     91 H91        22.9386   -3.6447   -8.0970 H         1 UNK         0.0819 
     92 H92        23.2463   -3.9945   -6.4021 H         1 UNK         0.0819 
     93 H93        21.7063   -3.2896   -6.8986 H         1 UNK         0.0819 
     94 H94        22.8233   -2.0896   -4.8684 H         1 UNK         0.3041 
     95 H95        23.6352    1.0365   -3.3939 H         1 UNK         0.0784 
     96 H96        21.2023    1.2452   -3.9483 H         1 UNK         0.0793 
     97 H97        20.9481   -0.4372   -3.5053 H         1 UNK         0.0793 
     98 H98        21.4444    0.7376   -2.2861 H         1 UNK         0.0793 
     99 H99        22.8754   -1.3170   -2.1042 H         1 UNK         0.3024 
    100 H100       24.6363   -2.3352   -0.8246 H         1 UNK         0.1171 
    101 H101       24.7959   -4.7112   -1.6516 H         1 UNK         0.0786 
    102 H102       23.4834   -3.8555   -2.4397 H         1 UNK         0.0786 
    103 H103       24.9898   -4.1285   -3.3033 H         1 UNK         0.0786 
    104 H104       27.0245   -3.3888   -2.1293 H         1 UNK         0.2977 
    105 H105       26.5767   -0.0965   -4.8133 H         1 UNK         0.3127 
    106 H106       28.5061    1.8610   -5.3100 H         1 UNK         0.0770 
    107 H107       25.6624    2.2004   -4.2084 H         1 UNK         0.0814 
    108 H108       26.9944    3.3254   -3.9733 H         1 UNK         0.0814 
    109 H109       27.0712    1.7185   -3.2650 H         1 UNK         0.0814 
    110 H110       25.5784    1.2346   -7.1195 H         1 UNK         0.2983 
    111 H111       25.4062    3.7492   -8.5099 H         1 UNK         0.0947 
    112 H112       24.2993    0.9694   -9.1910 H         1 UNK         0.0806 
    113 H113       23.8206    2.4718   -9.9707 H         1 UNK         0.0806 
    114 H114       23.4644    2.2203   -8.2704 H         1 UNK         0.0806 
    115 H115       27.6366    1.1031   -8.8668 H         1 UNK         0.3000 
    116 H116       28.1100    1.4919  -11.7370 H         1 UNK         0.0850 
    117 H117       29.8056   -0.2752  -11.4156 H         1 UNK         0.0810 
    118 H118       28.3148   -0.7690  -10.6319 H         1 UNK         0.0810 
    119 H119       29.6586   -0.1612   -9.6702 H         1 UNK         0.0810 
    120 H120       30.3881    1.8641  -12.4648 H         1 UNK         0.3040 
    121 H121       31.3105    4.4187  -11.5884 H         1 UNK         0.0766 
    122 H122       31.3986    3.6771  -13.9581 H         1 UNK         0.0812 
    123 H123       32.5510    2.4061  -13.5434 H         1 UNK         0.0812 
    124 H124       33.0059    4.0971  -13.3942 H         1 UNK         0.0812 
    125 H125       32.1252    1.2810  -10.3971 H         1 UNK         0.3205 
    126 H126       34.1482    2.3505   -8.6313 H         1 UNK         0.0754 
    127 H127       35.8371    0.5786   -9.2246 H         1 UNK         0.0769 
    128 H128       35.5746    1.6505  -10.5896 H         1 UNK         0.0769 
    129 H129       34.8335    0.0513  -10.5695 H         1 UNK         0.0769 
    130 H130       34.5935    0.7617   -6.9218 H         1 UNK         0.2981 
    131 H131       34.0112   -0.5915   -5.3268 H         1 UNK         0.0541 
    132 H132       30.3312   -0.5459   -4.3262 H         1 UNK         0.3459 
    133 H133       31.3447   -1.9007   -4.7663 H         1 UNK         0.3459 
    134 H134       32.1179   -2.4541   -6.7325 H         1 UNK         0.0612 
    135 H135       33.6078   -2.2622   -7.5511 H         1 UNK         0.0612 
    136 H136       34.1102   -3.5403   -3.1529 H         1 UNK         0.0624 
    137 H137       33.1970   -2.1339   -3.5857 H         1 UNK         0.0624 
@<TRIPOS>BOND
     1    1    2 1    
     2    1   72 1    
     3    1   73 1    
     4    1   74 1    
     5    2    3 2    
     6    2    4 am   BACKBONE|DICT|INTERRES
     7    4    5 1    
     8    4   75 1    
     9    5    6 1    
    10    5   35 1    
    11    5   76 1    
    12    6    7 1    
    13    6   77 1    
    14    6   78 1    
    15    7    8 1    
    16    8    9 1    
    17    8   79 1    
    18    8   80 1    
    19    9   10 ar   
    20    9   14 ar   
    21   10   11 ar   
    22   10   81 1    
    23   11   12 ar   
    24   11   71 1    
    25   12   13 ar   
    26   12   82 1    
    27   13   14 ar   
    28   13   15 1    
    29   14   83 1    
    30   15   16 1    
    31   15   84 1    
    32   15   85 1    
    33   16   17 1    
    34   17   18 1    
    35   17   86 1    
    36   17   87 1    
    37   18   19 1    
    38   18   37 1    
    39   18   88 1    
    40   19   20 am   BACKBONE|DICT|INTERRES
    41   19   89 1    
    42   20   21 2    
    43   20   22 1    
    44   22   23 1    
    45   22   24 1    
    46   22   90 1    
    47   23   91 1    
    48   23   92 1    
    49   23   93 1    
    50   24   25 am   BACKBONE|DICT|INTERRES
    51   24   94 1    
    52   25   26 2    
    53   25   27 1    
    54   27   28 1    
    55   27   29 1    
    56   27   95 1    
    57   28   96 1    
    58   28   97 1    
    59   28   98 1    
    60   29   30 am   BACKBONE|DICT|INTERRES
    61   29   99 1    
    62   30   31 2    
    63   30   32 1    
    64   32   33 1    
    65   32   34 1    
    66   32  100 1    
    67   33  101 1    
    68   33  102 1    
    69   33  103 1    
    70   34   35 am   BACKBONE|DICT|INTERRES
    71   34  104 1    
    72   35   36 2    
    73   37   38 2    
    74   37   39 am   BACKBONE|DICT|INTERRES
    75   39   40 1    
    76   39  105 1    
    77   40   41 1    
    78   40   42 1    
    79   40  106 1    
    80   41  107 1    
    81   41  108 1    
    82   41  109 1    
    83   42   43 2    
    84   42   44 am   BACKBONE|DICT|INTERRES
    85   44   45 1    
    86   44  110 1    
    87   45   46 1    
    88   45   47 1    
    89   45  111 1    
    90   46  112 1    
    91   46  113 1    
    92   46  114 1    
    93   47   48 2    
    94   47   49 am   BACKBONE|DICT|INTERRES
    95   49   50 1    
    96   49  115 1    
    97   50   51 1    
    98   50   52 1    
    99   50  116 1    
   100   51  117 1    
   101   51  118 1    
   102   51  119 1    
   103   52   53 2    
   104   52   54 am   BACKBONE|DICT|INTERRES
   105   54   55 1    
   106   54  120 1    
   107   55   56 1    
   108   55   57 1    
   109   55  121 1    
   110   56  122 1    
   111   56  123 1    
   112   56  124 1    
   113   57   58 2    
   114   57   59 am   BACKBONE|DICT|INTERRES
   115   59   60 1    
   116   59  125 1    
   117   60   61 1    
   118   60   62 1    
   119   60  126 1    
   120   61  127 1    
   121   61  128 1    
   122   61  129 1    
   123   62   63 2    
   124   62   64 am   BACKBONE|DICT|INTERRES
   125   64   65 1    
   126   64  130 1    
   127   65   66 1    
   128   65   69 1    
   129   65  131 1    
   130   66   67 am   BACKBONE|DICT|INTERRES
   131   66   68 2    
   132   67  132 1    
   133   67  133 1    
   134   69   70 1    
   135   69  134 1    
   136   69  135 1    
   137   70   71 1    
   138   71  136 1    
   139   71  137 1    
@<TRIPOS>SUBSTRUCTURE
     1 UNK         1 GROUP             0       ****    0 ROOT    
