@<TRIPOS>MOLECULE
3R137
137   139    1
SMALL
USER_CHARGES


@<TRIPOS>ATOM
      1 CA         27.4823   -1.5126    1.7079 C.3       0 UNK        -0.2020 
      2 C          27.7813   -0.7737    0.4124 C.2       0 UNK         0.4855 
      3 O          27.8979    0.4528    0.4182 O.2       0 UNK        -0.5197 
      4 N          27.9111   -1.5081   -0.6994 N.am      1 UNK        -0.4892 
      5 CA         28.1534   -0.9656   -2.0390 C.3       1 UNK         0.0835 
      6 C6         28.7842   -2.0176   -2.9860 C.3       12 UNK        -0.0855 
      7 S7         30.5093   -2.3800   -2.5240 S.3       12 UNK        -0.2931 
      8 C8         30.8160   -3.9285   -3.4310 C.3       12 UNK         0.0378 
      9 C9         30.6575   -3.7648   -4.9373 C.ar      12 UNK        -0.0802 
     10 C10        31.5948   -3.0309   -5.6730 C.ar      12 UNK        -0.0944 
     11 C11        31.4667   -2.9068   -7.0601 C.ar      12 UNK        -0.0787 
     12 C12        30.3949   -3.5238   -7.7091 C.ar      12 UNK        -0.0862 
     13 C13        29.4419   -4.2420   -6.9842 C.ar      12 UNK        -0.0733 
     14 C14        29.5797   -4.3632   -5.5983 C.ar      12 UNK        -0.0832 
     15 C15        28.2630   -4.8789   -7.7046 C.3       12 UNK         0.0240 
     16 S16        27.0050   -3.6396   -8.1461 S.3       12 UNK        -0.2522 
     17 C17        26.4514   -3.1001   -6.4951 C.3       12 UNK        -0.0967 
     18 CA         25.0057   -2.5502   -6.5072 C.3       5 UNK         0.0660 
     19 N          24.4436   -2.5252   -5.1629 N.am      5 UNK        -0.4015 
     20 C          23.6424   -3.4587   -4.6363 C.2       4 UNK         0.4946 
     21 O          23.3185   -4.4953   -5.2181 O.2       4 UNK        -0.5353 
     22 CA         23.0869   -3.1872   -3.2269 C.3       4 UNK         0.0277 
     23 CB         24.0648   -3.6841   -2.1493 C.3       4 UNK        -0.1981 
     24 N          22.7898   -1.7712   -3.0037 N.am      4 UNK        -0.4209 
     25 C          21.8181   -1.0784   -3.6128 C.2       3 UNK         0.4942 
     26 O          20.9877   -1.5898   -4.3647 O.2       3 UNK        -0.5208 
     27 CA         21.7728    0.4449   -3.3821 C.3       3 UNK         0.0250 
     28 CB         20.9070    0.8030   -2.1578 C.3       3 UNK        -0.1990 
     29 N          23.0976    1.0850   -3.3307 N.am      3 UNK        -0.4232 
     30 C          24.0501    0.9565   -2.3967 C.2       2 UNK         0.4993 
     31 O          23.9161    0.3082   -1.3558 O.2       2 UNK        -0.5286 
     32 CA         25.3917    1.6415   -2.7002 C.3       2 UNK         0.0209 
     33 CB         25.4375    3.0435   -2.0726 C.3       2 UNK        -0.1931 
     34 N          26.5382    0.8640   -2.2230 N.am      2 UNK        -0.4546 
     35 C          26.8509   -0.3785   -2.6151 C.2       1 UNK         0.5154 
     36 O          26.1706   -1.0436   -3.3983 O.2       1 UNK        -0.5181 
     37 C          24.9423   -1.1265   -7.0844 C.2       5 UNK         0.5014 
     38 O          25.1471   -0.1556   -6.3515 O.2       5 UNK        -0.5248 
     39 N          24.6917   -1.0291   -8.3963 N.am      6 UNK        -0.4434 
     40 CA         24.7125    0.2276   -9.1511 C.3       6 UNK         0.0363 
     41 CB         23.8119    0.0886  -10.3892 C.3       6 UNK        -0.1936 
     42 C          26.1350    0.6412   -9.5702 C.2       6 UNK         0.5081 
     43 O          26.3833    1.8293   -9.7721 O.2       6 UNK        -0.5248 
     44 N          27.0479   -0.3343   -9.6861 N.am      7 UNK        -0.4718 
     45 CA         28.4470   -0.1418  -10.0873 C.3       7 UNK         0.0273 
     46 CB         28.9388   -1.4144  -10.7976 C.3       7 UNK        -0.1935 
     47 C          29.3760    0.2425   -8.9193 C.2       7 UNK         0.5018 
     48 O          30.5864    0.3400   -9.1207 O.2       7 UNK        -0.5186 
     49 N          28.8048    0.4765   -7.7295 N.am      8 UNK        -0.4240 
     50 CA         29.4777    0.7849   -6.4619 C.3       8 UNK         0.0235 
     51 CB         28.3975    0.9820   -5.3903 C.3       8 UNK        -0.2000 
     52 C          30.4307    1.9977   -6.4705 C.2       8 UNK         0.4941 
     53 O          31.2392    2.1245   -5.5513 O.2       8 UNK        -0.5273 
     54 N          30.3259    2.8652   -7.4869 N.am      9 UNK        -0.4262 
     55 CA         31.2498    3.9724   -7.7435 C.3       9 UNK         0.0264 
     56 CB         30.6146    4.9261   -8.7688 C.3       9 UNK        -0.1955 
     57 C          32.6421    3.5135   -8.2248 C.2       9 UNK         0.5031 
     58 O          33.5978    4.2800   -8.0894 O.2       9 UNK        -0.5390 
     59 N          32.7379    2.2979   -8.7832 N.am      10 UNK        -0.4204 
     60 CA         33.9870    1.6582   -9.2004 C.3       10 UNK         0.0237 
     61 CB         33.7016    0.8060  -10.4542 C.3       10 UNK        -0.1985 
     62 C          34.5891    0.8305   -8.0455 C.2       10 UNK         0.4970 
     63 O          34.2332    1.0368   -6.8838 O.2       10 UNK        -0.4914 
     64 N          35.4872   -0.1033   -8.3871 N.am      11 UNK        -0.4285 
     65 CA         36.1160   -1.0815   -7.4765 C.3       11 UNK         0.1007 
     66 C          37.1094   -0.4712   -6.4399 C.2       11 UNK         0.5703 
     67 N          37.5712    0.7617   -6.6132 N.am      11 UNK        -0.7361 
     68 O          37.5005   -1.1347   -5.4820 O.2       11 UNK        -0.4986 
     69 C69        35.0931   -2.0622   -6.8236 C.3       12 UNK        -0.0947 
     70 S70        34.0611   -2.9324   -8.0543 S.3       12 UNK        -0.2240 
     71 C71        32.4608   -2.0854   -7.8648 C.3       12 UNK         0.0194 
     72 H72        27.4216   -2.5905    1.5590 H         1 UNK         0.0906 
     73 H73        28.2638   -1.3151    2.4412 H         1 UNK         0.0906 
     74 H74        26.5329   -1.1733    2.1215 H         1 UNK         0.0906 
     75 H75        27.8032   -2.5110   -0.6489 H         1 UNK         0.3140 
     76 H76        28.8628   -0.1383   -1.9568 H         1 UNK         0.1085 
     77 H77        28.7964   -1.6582   -4.0168 H         1 UNK         0.0836 
     78 H78        28.1983   -2.9388   -2.9910 H         1 UNK         0.0836 
     79 H79        30.1481   -4.7028   -3.0503 H         1 UNK         0.0731 
     80 H80        31.8296   -4.2684   -3.2137 H         1 UNK         0.0731 
     81 H81        32.4231   -2.5571   -5.1646 H         1 UNK         0.1312 
     82 H82        30.2932   -3.4343   -8.7809 H         1 UNK         0.1406 
     83 H83        28.8476   -4.9250   -5.0342 H         1 UNK         0.1631 
     84 H84        27.8082   -5.6614   -7.0951 H         1 UNK         0.0717 
     85 H85        28.6132   -5.3667   -8.6154 H         1 UNK         0.0717 
     86 H86        26.5024   -3.9631   -5.8293 H         1 UNK         0.0934 
     87 H87        27.1567   -2.3705   -6.0903 H         1 UNK         0.0934 
     88 H88        24.3819   -3.1936   -7.1321 H         1 UNK         0.0739 
     89 H89        24.7226   -1.7237   -4.6022 H         1 UNK         0.3093 
     90 H90        22.1539   -3.7457   -3.1254 H         1 UNK         0.0818 
     91 H91        25.0149   -3.1504   -2.1855 H         1 UNK         0.0819 
     92 H92        23.6492   -3.5597   -1.1492 H         1 UNK         0.0819 
     93 H93        24.2820   -4.7451   -2.2802 H         1 UNK         0.0819 
     94 H94        23.4029   -1.2579   -2.3760 H         1 UNK         0.3041 
     95 H95        21.2823    0.8720   -4.2585 H         1 UNK         0.0784 
     96 H96        19.8904    0.4273   -2.2807 H         1 UNK         0.0793 
     97 H97        21.2984    0.3719   -1.2360 H         1 UNK         0.0793 
     98 H98        20.8394    1.8823   -2.0216 H         1 UNK         0.0793 
     99 H99        23.3307    1.6188   -4.1575 H         1 UNK         0.3024 
    100 H100       25.4963    1.7346   -3.7840 H         1 UNK         0.1171 
    101 H101       26.3600    3.5644   -2.3299 H         1 UNK         0.0786 
    102 H102       25.3688    2.9985   -0.9847 H         1 UNK         0.0786 
    103 H103       24.6096    3.6595   -2.4265 H         1 UNK         0.0786 
    104 H104       27.0931    1.2740   -1.4818 H         1 UNK         0.2977 
    105 H105       24.5304   -1.8746   -8.9260 H         1 UNK         0.3127 
    106 H106       24.3073    1.0260   -8.5252 H         1 UNK         0.0770 
    107 H107       24.1644   -0.6941  -11.0622 H         1 UNK         0.0814 
    108 H108       23.7857    1.0192  -10.9580 H         1 UNK         0.0814 
    109 H109       22.7850   -0.1459  -10.1084 H         1 UNK         0.0814 
    110 H110       26.7693   -1.2826   -9.4755 H         1 UNK         0.2983 
    111 H111       28.4998    0.6798  -10.8052 H         1 UNK         0.0947 
    112 H112       29.9807   -1.3205  -11.1075 H         1 UNK         0.0806 
    113 H113       28.3546   -1.6142  -11.6960 H         1 UNK         0.0806 
    114 H114       28.8657   -2.2892  -10.1534 H         1 UNK         0.0806 
    115 H115       27.7998    0.3912   -7.6850 H         1 UNK         0.3000 
    116 H116       30.0758   -0.0899   -6.1972 H         1 UNK         0.0850 
    117 H117       28.8445    1.1241   -4.4057 H         1 UNK         0.0810 
    118 H118       27.7398    0.1156   -5.3344 H         1 UNK         0.0810 
    119 H119       27.7768    1.8547   -5.5973 H         1 UNK         0.0810 
    120 H120       29.6202    2.6890   -8.1871 H         1 UNK         0.3040 
    121 H121       31.3918    4.5193   -6.8089 H         1 UNK         0.0766 
    122 H122       29.6628    5.3188   -8.4104 H         1 UNK         0.0812 
    123 H123       30.4374    4.4319   -9.7249 H         1 UNK         0.0812 
    124 H124       31.2643    5.7815   -8.9600 H         1 UNK         0.0812 
    125 H125       31.9095    1.7084   -8.8196 H         1 UNK         0.3205 
    126 H126       34.7165    2.4247   -9.4695 H         1 UNK         0.0754 
    127 H127       34.6211    0.4411  -10.9125 H         1 UNK         0.0769 
    128 H128       33.1815    1.3878  -11.2156 H         1 UNK         0.0769 
    129 H129       33.0812   -0.0604  -10.2217 H         1 UNK         0.0769 
    130 H130       35.7391   -0.1971   -9.3599 H         1 UNK         0.2981 
    131 H131       36.7547   -1.6857   -8.1215 H         1 UNK         0.0541 
    132 H132       37.2672    1.3158   -7.3972 H         1 UNK         0.3459 
    133 H133       38.2222    1.1433   -5.9451 H         1 UNK         0.3459 
    134 H134       35.6182   -2.8319   -6.2558 H         1 UNK         0.0612 
    135 H135       34.4620   -1.5420   -6.1022 H         1 UNK         0.0612 
    136 H136       32.0667   -1.8910   -8.8629 H         1 UNK         0.0624 
    137 H137       32.5811   -1.1086   -7.3977 H         1 UNK         0.0624 
@<TRIPOS>BOND
     1    1    2 1    
     2    1   72 1    
     3    1   73 1    
     4    1   74 1    
     5    2    3 2    
     6    2    4 am   BACKBONE|DICT|INTERRES
     7    4    5 1    
     8    4   75 1    
     9    5    6 1    
    10    5   35 1    
    11    5   76 1    
    12    6    7 1    
    13    6   77 1    
    14    6   78 1    
    15    7    8 1    
    16    8    9 1    
    17    8   79 1    
    18    8   80 1    
    19    9   10 ar   
    20    9   14 ar   
    21   10   11 ar   
    22   10   81 1    
    23   11   12 ar   
    24   11   71 1    
    25   12   13 ar   
    26   12   82 1    
    27   13   14 ar   
    28   13   15 1    
    29   14   83 1    
    30   15   16 1    
    31   15   84 1    
    32   15   85 1    
    33   16   17 1    
    34   17   18 1    
    35   17   86 1    
    36   17   87 1    
    37   18   19 1    
    38   18   37 1    
    39   18   88 1    
    40   19   20 am   BACKBONE|DICT|INTERRES
    41   19   89 1    
    42   20   21 2    
    43   20   22 1    
    44   22   23 1    
    45   22   24 1    
    46   22   90 1    
    47   23   91 1    
    48   23   92 1    
    49   23   93 1    
    50   24   25 am   BACKBONE|DICT|INTERRES
    51   24   94 1    
    52   25   26 2    
    53   25   27 1    
    54   27   28 1    
    55   27   29 1    
    56   27   95 1    
    57   28   96 1    
    58   28   97 1    
    59   28   98 1    
    60   29   30 am   BACKBONE|DICT|INTERRES
    61   29   99 1    
    62   30   31 2    
    63   30   32 1    
    64   32   33 1    
    65   32   34 1    
    66   32  100 1    
    67   33  101 1    
    68   33  102 1    
    69   33  103 1    
    70   34   35 am   BACKBONE|DICT|INTERRES
    71   34  104 1    
    72   35   36 2    
    73   37   38 2    
    74   37   39 am   BACKBONE|DICT|INTERRES
    75   39   40 1    
    76   39  105 1    
    77   40   41 1    
    78   40   42 1    
    79   40  106 1    
    80   41  107 1    
    81   41  108 1    
    82   41  109 1    
    83   42   43 2    
    84   42   44 am   BACKBONE|DICT|INTERRES
    85   44   45 1    
    86   44  110 1    
    87   45   46 1    
    88   45   47 1    
    89   45  111 1    
    90   46  112 1    
    91   46  113 1    
    92   46  114 1    
    93   47   48 2    
    94   47   49 am   BACKBONE|DICT|INTERRES
    95   49   50 1    
    96   49  115 1    
    97   50   51 1    
    98   50   52 1    
    99   50  116 1    
   100   51  117 1    
   101   51  118 1    
   102   51  119 1    
   103   52   53 2    
   104   52   54 am   BACKBONE|DICT|INTERRES
   105   54   55 1    
   106   54  120 1    
   107   55   56 1    
   108   55   57 1    
   109   55  121 1    
   110   56  122 1    
   111   56  123 1    
   112   56  124 1    
   113   57   58 2    
   114   57   59 am   BACKBONE|DICT|INTERRES
   115   59   60 1    
   116   59  125 1    
   117   60   61 1    
   118   60   62 1    
   119   60  126 1    
   120   61  127 1    
   121   61  128 1    
   122   61  129 1    
   123   62   63 2    
   124   62   64 am   BACKBONE|DICT|INTERRES
   125   64   65 1    
   126   64  130 1    
   127   65   66 1    
   128   65   69 1    
   129   65  131 1    
   130   66   67 am   BACKBONE|DICT|INTERRES
   131   66   68 2    
   132   67  132 1    
   133   67  133 1    
   134   69   70 1    
   135   69  134 1    
   136   69  135 1    
   137   70   71 1    
   138   71  136 1    
   139   71  137 1    
@<TRIPOS>SUBSTRUCTURE
     1 UNK         1 GROUP             0       ****    0 ROOT    
