@<TRIPOS>MOLECULE
3R137
137   139    1
SMALL
USER_CHARGES


@<TRIPOS>ATOM
      1 CA         29.0860   -5.8255   -8.2576 C.3       0 UNK        -0.2020 
      2 C          28.0209   -6.0081   -7.1862 C.2       0 UNK         0.4855 
      3 O          27.0746   -6.7691   -7.3866 O.2       0 UNK        -0.5197 
      4 N          28.1744   -5.3177   -6.0484 N.am      1 UNK        -0.4892 
      5 CA         27.2687   -5.3717   -4.8927 C.3       1 UNK         0.0835 
      6 C6         27.8480   -4.6114   -3.6728 C.3       12 UNK        -0.0855 
      7 S7         29.3627   -5.3779   -3.0079 S.3       12 UNK        -0.2931 
      8 C8         30.6720   -4.2920   -3.6744 C.3       12 UNK         0.0378 
      9 C9         30.8205   -2.9098   -3.0310 C.ar      12 UNK        -0.0802 
     10 C10        31.9193   -2.1367   -3.4171 C.ar      12 UNK        -0.0944 
     11 C11        32.1359   -0.8639   -2.8803 C.ar      12 UNK        -0.0787 
     12 C12        31.2338   -0.3606   -1.9396 C.ar      12 UNK        -0.0862 
     13 C13        30.1314   -1.1184   -1.5319 C.ar      12 UNK        -0.0733 
     14 C14        29.9303   -2.3904   -2.0788 C.ar      12 UNK        -0.0832 
     15 C15        29.1896   -0.5823   -0.4591 C.3       12 UNK         0.0240 
     16 S16        27.5589   -0.0939   -1.1113 S.3       12 UNK        -0.2522 
     17 C17        27.9788    1.2925   -2.2211 C.3       12 UNK        -0.0967 
     18 CA         27.4002    1.0561   -3.6387 C.3       5 UNK         0.0660 
     19 N          25.9281    1.1145   -3.7066 N.am      5 UNK        -0.4015 
     20 C          25.1224    2.1599   -3.4510 C.2       4 UNK         0.4946 
     21 O          25.5347    3.2579   -3.0733 O.2       4 UNK        -0.5353 
     22 CA         23.6142    2.0070   -3.7243 C.3       4 UNK         0.0277 
     23 CB         23.2368    2.7438   -5.0212 C.3       4 UNK        -0.1981 
     24 N          23.1690    0.6176   -3.8227 N.am      4 UNK        -0.4209 
     25 C          23.0088   -0.2040   -2.7775 C.2       3 UNK         0.4942 
     26 O          23.1416    0.1469   -1.6046 O.2       3 UNK        -0.5208 
     27 CA         22.6501   -1.6695   -3.0876 C.3       3 UNK         0.0250 
     28 CB         21.1368   -1.8927   -2.9299 C.3       3 UNK        -0.1990 
     29 N          23.0747   -2.1657   -4.4059 N.am      3 UNK        -0.4232 
     30 C          24.3341   -2.1754   -4.8643 C.2       2 UNK         0.4993 
     31 O          25.2777   -1.6121   -4.3046 O.2       2 UNK        -0.5286 
     32 CA         24.5972   -2.9323   -6.1766 C.3       2 UNK         0.0209 
     33 CB         24.8088   -1.9432   -7.3337 C.3       2 UNK        -0.1931 
     34 N          25.7896   -3.7689   -6.0270 N.am      2 UNK        -0.4546 
     35 C          25.8619   -4.8223   -5.1996 C.2       1 UNK         0.5154 
     36 O          24.8808   -5.3316   -4.6545 O.2       1 UNK        -0.5181 
     37 C          28.0976    1.9359   -4.6985 C.2       5 UNK         0.5014 
     38 O          28.9952    1.4504   -5.3832 O.2       5 UNK        -0.5248 
     39 N          27.6370    3.1793   -4.8833 N.am      6 UNK        -0.4434 
     40 CA         28.0674    4.1093   -5.9332 C.3       6 UNK         0.0363 
     41 CB         27.4087    5.4760   -5.6878 C.3       6 UNK        -0.1936 
     42 C          27.7701    3.6195   -7.3654 C.2       6 UNK         0.5081 
     43 O          28.3790    4.1204   -8.3115 O.2       6 UNK        -0.5248 
     44 N          26.8543    2.6518   -7.4991 N.am      7 UNK        -0.4718 
     45 CA         26.5026    1.9843   -8.7521 C.3       7 UNK         0.0273 
     46 CB         24.9748    1.7994   -8.7859 C.3       7 UNK        -0.1935 
     47 C          27.2110    0.6268   -8.9338 C.2       7 UNK         0.5018 
     48 O          27.0116    0.0002   -9.9758 O.2       7 UNK        -0.5186 
     49 N          27.9800    0.1611   -7.9354 N.am      8 UNK        -0.4240 
     50 CA         28.6618   -1.1364   -7.9752 C.3       8 UNK         0.0235 
     51 CB         28.9643   -1.6079   -6.5417 C.3       8 UNK        -0.2000 
     52 C          29.9435   -1.0784   -8.8230 C.2       8 UNK         0.4941 
     53 O          30.5146   -0.0007   -9.0155 O.2       8 UNK        -0.5273 
     54 N          30.3761   -2.2515   -9.3054 N.am      9 UNK        -0.4262 
     55 CA         31.5525   -2.4484  -10.1571 C.3       9 UNK         0.0264 
     56 CB         31.7184   -3.9485  -10.4557 C.3       9 UNK        -0.1955 
     57 C          32.8354   -1.8660   -9.5378 C.2       9 UNK         0.5031 
     58 O          33.2635   -2.3319   -8.4804 O.2       9 UNK        -0.5390 
     59 N          33.3896   -0.8452  -10.2071 N.am      10 UNK        -0.4204 
     60 CA         34.5713   -0.0540   -9.8367 C.3       10 UNK         0.0237 
     61 CB         35.8312   -0.9427   -9.7434 C.3       10 UNK        -0.1985 
     62 C          34.3968    0.8422   -8.5907 C.2       10 UNK         0.4970 
     63 O          35.3873    1.4282   -8.1493 O.2       10 UNK        -0.4914 
     64 N          33.1705    0.9699   -8.0671 N.am      11 UNK        -0.4285 
     65 CA         32.8250    1.8237   -6.9176 C.3       11 UNK         0.1007 
     66 C          31.7558    2.8918   -7.2678 C.2       11 UNK         0.5703 
     67 N          30.9045    2.6790   -8.2627 N.am      11 UNK        -0.7361 
     68 O          31.7182    3.9466   -6.6389 O.2       11 UNK        -0.4986 
     69 C69        32.3815    0.9857   -5.6914 C.3       12 UNK        -0.0947 
     70 S70        33.7315   -0.0537   -5.0455 S.3       12 UNK        -0.2240 
     71 C71        33.3734   -0.0535   -3.2583 C.3       12 UNK         0.0194 
     72 H72        29.4856   -6.7947   -8.5554 H         1 UNK         0.0906 
     73 H73        28.6548   -5.3520   -9.1392 H         1 UNK         0.0906 
     74 H74        29.9176   -5.2145   -7.9078 H         1 UNK         0.0906 
     75 H75        28.9972   -4.7494   -5.9240 H         1 UNK         0.3140 
     76 H76        27.1444   -6.4221   -4.6193 H         1 UNK         0.1085 
     77 H77        27.1241   -4.5935   -2.8547 H         1 UNK         0.0836 
     78 H78        28.0354   -3.5653   -3.9243 H         1 UNK         0.0836 
     79 H79        31.6182   -4.8234   -3.5609 H         1 UNK         0.0731 
     80 H80        30.5239   -4.1677   -4.7471 H         1 UNK         0.0731 
     81 H81        32.6212   -2.5354   -4.1371 H         1 UNK         0.1312 
     82 H82        31.4034    0.6151   -1.5050 H         1 UNK         0.1406 
     83 H83        29.0802   -2.9669   -1.7445 H         1 UNK         0.1631 
     84 H84        29.6344    0.2702    0.0569 H         1 UNK         0.0717 
     85 H85        29.0435   -1.3506    0.3015 H         1 UNK         0.0717 
     86 H86        27.6047    2.2210   -1.7877 H         1 UNK         0.0934 
     87 H87        29.0632    1.4022   -2.2618 H         1 UNK         0.0934 
     88 H88        27.6490    0.0306   -3.9196 H         1 UNK         0.0739 
     89 H89        25.5009    0.2301   -3.9741 H         1 UNK         0.3093 
     90 H90        23.0850    2.4825   -2.8955 H         1 UNK         0.0818 
     91 H91        22.1609    2.7152   -5.1949 H         1 UNK         0.0819 
     92 H92        23.5252    3.7950   -4.9729 H         1 UNK         0.0819 
     93 H93        23.7294    2.3116   -5.8925 H         1 UNK         0.0819 
     94 H94        23.0219    0.2444   -4.7489 H         1 UNK         0.3041 
     95 H95        23.1622   -2.2802   -2.3409 H         1 UNK         0.0784 
     96 H96        20.7919   -1.5605   -1.9495 H         1 UNK         0.0793 
     97 H97        20.5675   -1.3411   -3.6792 H         1 UNK         0.0793 
     98 H98        20.8782   -2.9480   -3.0192 H         1 UNK         0.0793 
     99 H99        22.3637   -2.6368   -4.9472 H         1 UNK         0.3024 
    100 H100       23.7472   -3.5784   -6.4080 H         1 UNK         0.1171 
    101 H101       25.0461   -2.4594   -8.2642 H         1 UNK         0.0786 
    102 H102       25.6188   -1.2455   -7.1209 H         1 UNK         0.0786 
    103 H103       23.9091   -1.3530   -7.5119 H         1 UNK         0.0786 
    104 H104       26.6472   -3.4157   -6.4207 H         1 UNK         0.2977 
    105 H105       26.8879    3.4873   -4.2645 H         1 UNK         0.3127 
    106 H106       29.1490    4.2266   -5.8479 H         1 UNK         0.0770 
    107 H107       26.3208    5.4136   -5.7373 H         1 UNK         0.0814 
    108 H108       27.7290    6.2039   -6.4347 H         1 UNK         0.0814 
    109 H109       27.6785    5.8770   -4.7107 H         1 UNK         0.0814 
    110 H110       26.4066    2.3103   -6.6624 H         1 UNK         0.2983 
    111 H111       26.7887    2.6101   -9.6004 H         1 UNK         0.0947 
    112 H112       24.6542    1.3515   -9.7276 H         1 UNK         0.0806 
    113 H113       24.4574    2.7545   -8.6931 H         1 UNK         0.0806 
    114 H114       24.6275    1.1493   -7.9825 H         1 UNK         0.0806 
    115 H115       28.2000    0.7613   -7.1478 H         1 UNK         0.3000 
    116 H116       27.9854   -1.8622   -8.4324 H         1 UNK         0.0850 
    117 H117       29.3938   -2.6090   -6.5396 H         1 UNK         0.0810 
    118 H118       28.0626   -1.6352   -5.9295 H         1 UNK         0.0810 
    119 H119       29.6809   -0.9577   -6.0427 H         1 UNK         0.0810 
    120 H120       29.8520   -3.0828   -9.0828 H         1 UNK         0.3040 
    121 H121       31.3529   -1.9392  -11.1023 H         1 UNK         0.0766 
    122 H122       31.8829   -4.5262   -9.5452 H         1 UNK         0.0812 
    123 H123       32.5750   -4.1225  -11.1084 H         1 UNK         0.0812 
    124 H124       30.8417   -4.3558  -10.9598 H         1 UNK         0.0812 
    125 H125       32.9203   -0.5330  -11.0468 H         1 UNK         0.3205 
    126 H126       34.7276    0.6367  -10.6666 H         1 UNK         0.0754 
    127 H127       36.7325   -0.3367   -9.6434 H         1 UNK         0.0769 
    128 H128       35.9534   -1.5548  -10.6370 H         1 UNK         0.0769 
    129 H129       35.7944   -1.6092   -8.8812 H         1 UNK         0.0769 
    130 H130       32.3932    0.4769   -8.4924 H         1 UNK         0.2981 
    131 H131       33.7030    2.3966   -6.6139 H         1 UNK         0.0541 
    132 H132       30.8424    1.7647   -8.7018 H         1 UNK         0.3459 
    133 H133       30.1884    3.3707   -8.4504 H         1 UNK         0.3459 
    134 H134       31.5434    0.3404   -5.9534 H         1 UNK         0.0612 
    135 H135       32.0276    1.6365   -4.8895 H         1 UNK         0.0612 
    136 H136       34.2318   -0.4777   -2.7363 H         1 UNK         0.0624 
    137 H137       33.2852    0.9787   -2.9160 H         1 UNK         0.0624 
@<TRIPOS>BOND
     1    1    2 1    
     2    1   72 1    
     3    1   73 1    
     4    1   74 1    
     5    2    3 2    
     6    2    4 am   BACKBONE|DICT|INTERRES
     7    4    5 1    
     8    4   75 1    
     9    5    6 1    
    10    5   35 1    
    11    5   76 1    
    12    6    7 1    
    13    6   77 1    
    14    6   78 1    
    15    7    8 1    
    16    8    9 1    
    17    8   79 1    
    18    8   80 1    
    19    9   10 ar   
    20    9   14 ar   
    21   10   11 ar   
    22   10   81 1    
    23   11   12 ar   
    24   11   71 1    
    25   12   13 ar   
    26   12   82 1    
    27   13   14 ar   
    28   13   15 1    
    29   14   83 1    
    30   15   16 1    
    31   15   84 1    
    32   15   85 1    
    33   16   17 1    
    34   17   18 1    
    35   17   86 1    
    36   17   87 1    
    37   18   19 1    
    38   18   37 1    
    39   18   88 1    
    40   19   20 am   BACKBONE|DICT|INTERRES
    41   19   89 1    
    42   20   21 2    
    43   20   22 1    
    44   22   23 1    
    45   22   24 1    
    46   22   90 1    
    47   23   91 1    
    48   23   92 1    
    49   23   93 1    
    50   24   25 am   BACKBONE|DICT|INTERRES
    51   24   94 1    
    52   25   26 2    
    53   25   27 1    
    54   27   28 1    
    55   27   29 1    
    56   27   95 1    
    57   28   96 1    
    58   28   97 1    
    59   28   98 1    
    60   29   30 am   BACKBONE|DICT|INTERRES
    61   29   99 1    
    62   30   31 2    
    63   30   32 1    
    64   32   33 1    
    65   32   34 1    
    66   32  100 1    
    67   33  101 1    
    68   33  102 1    
    69   33  103 1    
    70   34   35 am   BACKBONE|DICT|INTERRES
    71   34  104 1    
    72   35   36 2    
    73   37   38 2    
    74   37   39 am   BACKBONE|DICT|INTERRES
    75   39   40 1    
    76   39  105 1    
    77   40   41 1    
    78   40   42 1    
    79   40  106 1    
    80   41  107 1    
    81   41  108 1    
    82   41  109 1    
    83   42   43 2    
    84   42   44 am   BACKBONE|DICT|INTERRES
    85   44   45 1    
    86   44  110 1    
    87   45   46 1    
    88   45   47 1    
    89   45  111 1    
    90   46  112 1    
    91   46  113 1    
    92   46  114 1    
    93   47   48 2    
    94   47   49 am   BACKBONE|DICT|INTERRES
    95   49   50 1    
    96   49  115 1    
    97   50   51 1    
    98   50   52 1    
    99   50  116 1    
   100   51  117 1    
   101   51  118 1    
   102   51  119 1    
   103   52   53 2    
   104   52   54 am   BACKBONE|DICT|INTERRES
   105   54   55 1    
   106   54  120 1    
   107   55   56 1    
   108   55   57 1    
   109   55  121 1    
   110   56  122 1    
   111   56  123 1    
   112   56  124 1    
   113   57   58 2    
   114   57   59 am   BACKBONE|DICT|INTERRES
   115   59   60 1    
   116   59  125 1    
   117   60   61 1    
   118   60   62 1    
   119   60  126 1    
   120   61  127 1    
   121   61  128 1    
   122   61  129 1    
   123   62   63 2    
   124   62   64 am   BACKBONE|DICT|INTERRES
   125   64   65 1    
   126   64  130 1    
   127   65   66 1    
   128   65   69 1    
   129   65  131 1    
   130   66   67 am   BACKBONE|DICT|INTERRES
   131   66   68 2    
   132   67  132 1    
   133   67  133 1    
   134   69   70 1    
   135   69  134 1    
   136   69  135 1    
   137   70   71 1    
   138   71  136 1    
   139   71  137 1    
@<TRIPOS>SUBSTRUCTURE
     1 UNK         1 GROUP             0       ****    0 ROOT    
