@<TRIPOS>MOLECULE
3R137
137   139    1
SMALL
USER_CHARGES


@<TRIPOS>ATOM
      1 CA         26.8585   -5.4021   -1.9287 C.3       0 UNK        -0.2020 
      2 C          26.9645   -4.1906   -1.0153 C.2       0 UNK         0.4855 
      3 O          26.2647   -4.1205   -0.0050 O.2       0 UNK        -0.5197 
      4 N          27.8333   -3.2335   -1.3655 N.am      1 UNK        -0.4892 
      5 CA         28.0867   -2.0035   -0.5960 C.3       1 UNK         0.0835 
      6 C6         29.4956   -1.4122   -0.8688 C.3       12 UNK        -0.0855 
      7 S7         30.8382   -2.6049   -0.5181 S.3       12 UNK        -0.2931 
      8 C8         32.1672   -2.0349   -1.6357 C.3       12 UNK         0.0378 
      9 C9         32.1892   -2.7358   -2.9941 C.ar      12 UNK        -0.0802 
     10 C10        33.4106   -3.1095   -3.5618 C.ar      12 UNK        -0.0944 
     11 C11        33.4609   -3.7046   -4.8265 C.ar      12 UNK        -0.0787 
     12 C12        32.2703   -3.9297   -5.5249 C.ar      12 UNK        -0.0862 
     13 C13        31.0357   -3.5623   -4.9788 C.ar      12 UNK        -0.0733 
     14 C14        31.0123   -2.9774   -3.7073 C.ar      12 UNK        -0.0832 
     15 C15        29.7713   -3.7966   -5.8132 C.3       12 UNK         0.0240 
     16 S16        28.1673   -3.5314   -4.9712 S.3       12 UNK        -0.2522 
     17 C17        28.0705   -1.7108   -4.8767 C.3       12 UNK        -0.0967 
     18 CA         27.4527   -1.0659   -6.1353 C.3       5 UNK         0.0660 
     19 N          26.1260   -1.5901   -6.4652 N.am      5 UNK        -0.4015 
     20 C          25.5732   -1.4865   -7.6823 C.2       4 UNK         0.4946 
     21 O          26.1328   -0.9546   -8.6401 O.2       4 UNK        -0.5353 
     22 CA         24.1331   -1.9998   -7.8520 C.3       4 UNK         0.0277 
     23 CB         24.1329   -3.4978   -8.1940 C.3       4 UNK        -0.1981 
     24 N          23.2908   -1.7628   -6.6770 N.am      4 UNK        -0.4209 
     25 C          23.0554   -0.5604   -6.1342 C.2       3 UNK         0.4942 
     26 O          23.4928    0.4927   -6.5995 O.2       3 UNK        -0.5208 
     27 CA         22.2568   -0.5192   -4.8199 C.3       3 UNK         0.0250 
     28 CB         21.4533   -1.8086   -4.5328 C.3       3 UNK        -0.1990 
     29 N          23.1111   -0.1850   -3.6718 N.am      3 UNK        -0.4232 
     30 C          24.2106   -0.8369   -3.2619 C.2       2 UNK         0.4993 
     31 O          24.7136   -1.7925   -3.8631 O.2       2 UNK        -0.5286 
     32 CA         24.8518   -0.3427   -1.9560 C.3       2 UNK         0.0209 
     33 CB         23.8490   -0.3888   -0.7825 C.3       2 UNK        -0.1931 
     34 N          26.0058   -1.1876   -1.6582 N.am      2 UNK        -0.4546 
     35 C          26.9853   -0.9313   -0.7826 C.2       1 UNK         0.5154 
     36 O          27.0450    0.1107   -0.1282 O.2       1 UNK        -0.5181 
     37 C          27.4540    0.4686   -5.9985 C.2       5 UNK         0.5014 
     38 O          28.5017    1.0774   -6.2064 O.2       5 UNK        -0.5248 
     39 N          26.3092    1.0857   -5.6691 N.am      6 UNK        -0.4434 
     40 CA         26.1696    2.5444   -5.6555 C.3       6 UNK         0.0363 
     41 CB         24.9419    2.9645   -4.8310 C.3       6 UNK        -0.1936 
     42 C          26.1057    3.0986   -7.0873 C.2       6 UNK         0.5081 
     43 O          26.7362    4.1168   -7.3694 O.2       6 UNK        -0.5248 
     44 N          25.3938    2.3877   -7.9744 N.am      7 UNK        -0.4718 
     45 CA         25.3275    2.6724   -9.4097 C.3       7 UNK         0.0273 
     46 CB         24.2292    1.8112  -10.0538 C.3       7 UNK        -0.1935 
     47 C          26.6772    2.4687  -10.1224 C.2       7 UNK         0.5018 
     48 O          27.0634    3.3112  -10.9332 O.2       7 UNK        -0.5186 
     49 N          27.3769    1.3712   -9.7979 N.am      8 UNK        -0.4240 
     50 CA         28.6961    1.0322  -10.3444 C.3       8 UNK         0.0235 
     51 CB         28.9713   -0.4624  -10.1103 C.3       8 UNK        -0.2000 
     52 C          29.8553    1.8741   -9.7777 C.2       8 UNK         0.4941 
     53 O          30.9339    1.8559  -10.3715 O.2       8 UNK        -0.5273 
     54 N          29.6244    2.5735   -8.6550 N.am      9 UNK        -0.4262 
     55 CA         30.5962    3.3284   -7.8541 C.3       9 UNK         0.0264 
     56 CB         31.1972    4.5069   -8.6502 C.3       9 UNK        -0.1955 
     57 C          31.6589    2.3916   -7.2502 C.2       9 UNK         0.5031 
     58 O          32.8393    2.4705   -7.5995 O.2       9 UNK        -0.5390 
     59 N          31.1884    1.4951   -6.3728 N.am      10 UNK        -0.4204 
     60 CA         31.9073    0.3821   -5.7523 C.3       10 UNK         0.0237 
     61 CB         33.0374    0.8761   -4.8193 C.3       10 UNK        -0.1985 
     62 C          32.3407   -0.6256   -6.8281 C.2       10 UNK         0.4970 
     63 O          31.4770   -1.1340   -7.5448 O.2       10 UNK        -0.4914 
     64 N          33.6454   -0.9022   -6.9212 N.am      11 UNK        -0.4285 
     65 CA         34.2285   -1.8616   -7.8690 C.3       11 UNK         0.1007 
     66 C          34.1891   -1.4155   -9.3615 C.2       11 UNK         0.5703 
     67 N          33.8528   -0.1707   -9.6805 N.am      11 UNK        -0.7361 
     68 O          34.4676   -2.2200  -10.2476 O.2       11 UNK        -0.4986 
     69 C69        35.6632   -2.2928   -7.4584 C.3       12 UNK        -0.0947 
     70 S70        35.9016   -2.6852   -5.6893 S.3       12 UNK        -0.2240 
     71 C71        34.8026   -4.1149   -5.4230 C.3       12 UNK         0.0194 
     72 H72        25.9466   -5.3453   -2.5227 H         1 UNK         0.0906 
     73 H73        26.8265   -6.3180   -1.3392 H         1 UNK         0.0906 
     74 H74        27.7066   -5.4723   -2.6096 H         1 UNK         0.0906 
     75 H75        28.3840   -3.3567   -2.2020 H         1 UNK         0.3140 
     76 H76        28.0540   -2.2687    0.4634 H         1 UNK         0.1085 
     77 H77        29.6688   -0.5418   -0.2325 H         1 UNK         0.0836 
     78 H78        29.5689   -1.0447   -1.8929 H         1 UNK         0.0836 
     79 H79        32.0881   -0.9577   -1.7888 H         1 UNK         0.0731 
     80 H80        33.1162   -2.1979   -1.1225 H         1 UNK         0.0731 
     81 H81        34.3320   -2.9277   -3.0251 H         1 UNK         0.1312 
     82 H82        32.3030   -4.3849   -6.5054 H         1 UNK         0.1406 
     83 H83        30.0758   -2.6997   -3.2611 H         1 UNK         0.1631 
     84 H84        29.7829   -4.8265   -6.1728 H         1 UNK         0.0717 
     85 H85        29.8104   -3.1640   -6.7009 H         1 UNK         0.0717 
     86 H86        27.4878   -1.4510   -3.9929 H         1 UNK         0.0934 
     87 H87        29.0680   -1.3032   -4.7116 H         1 UNK         0.0934 
     88 H88        28.1159   -1.3015   -6.9697 H         1 UNK         0.0739 
     89 H89        25.5945   -1.9949   -5.7002 H         1 UNK         0.3093 
     90 H90        23.6889   -1.4561   -8.6884 H         1 UNK         0.0818 
     91 H91        24.7387   -3.6946   -9.0798 H         1 UNK         0.0819 
     92 H92        24.5409   -4.0990   -7.3803 H         1 UNK         0.0819 
     93 H93        23.1259   -3.8572   -8.4066 H         1 UNK         0.0819 
     94 H94        22.9213   -2.5765   -6.2071 H         1 UNK         0.3041 
     95 H95        21.5415    0.2978   -4.9280 H         1 UNK         0.0784 
     96 H96        20.7975   -2.0608   -5.3675 H         1 UNK         0.0793 
     97 H97        22.0970   -2.6680   -4.3408 H         1 UNK         0.0793 
     98 H98        20.8159   -1.6802   -3.6578 H         1 UNK         0.0793 
     99 H99        22.8011    0.6091   -3.1291 H         1 UNK         0.3024 
    100 H100       25.1960    0.6821   -2.1109 H         1 UNK         0.1171 
    101 H101       22.9896    0.2582   -0.9598 H         1 UNK         0.0786 
    102 H102       23.4709   -1.3992   -0.6202 H         1 UNK         0.0786 
    103 H103       24.3048   -0.0530    0.1489 H         1 UNK         0.0786 
    104 H104       26.0321   -2.0482   -2.1921 H         1 UNK         0.2977 
    105 H105       25.4576    0.5448   -5.5957 H         1 UNK         0.3127 
    106 H106       27.0512    2.9720   -5.1723 H         1 UNK         0.0770 
    107 H107       24.0079    2.6170   -5.2709 H         1 UNK         0.0814 
    108 H108       24.8787    4.0514   -4.7648 H         1 UNK         0.0814 
    109 H109       24.9982    2.5833   -3.8120 H         1 UNK         0.0814 
    110 H110       24.8622    1.5911   -7.6370 H         1 UNK         0.2983 
    111 H111       25.0487    3.7220   -9.5276 H         1 UNK         0.0947 
    112 H112       24.4410    0.7458   -9.9600 H         1 UNK         0.0806 
    113 H113       24.1345    2.0323  -11.1178 H         1 UNK         0.0806 
    114 H114       23.2581    1.9996   -9.5956 H         1 UNK         0.0806 
    115 H115       26.9445    0.6772   -9.1919 H         1 UNK         0.3000 
    116 H116       28.6697    1.2055  -11.4223 H         1 UNK         0.0850 
    117 H117       29.9205   -0.7613  -10.5575 H         1 UNK         0.0810 
    118 H118       28.1937   -1.0865  -10.5509 H         1 UNK         0.0810 
    119 H119       29.0303   -0.6963   -9.0473 H         1 UNK         0.0810 
    120 H120       28.7049    2.4875   -8.2428 H         1 UNK         0.3040 
    121 H121       30.0381    3.7529   -7.0178 H         1 UNK         0.0766 
    122 H122       31.8065    4.1696   -9.4890 H         1 UNK         0.0812 
    123 H123       31.8386    5.1157   -8.0121 H         1 UNK         0.0812 
    124 H124       30.4162    5.1578   -9.0431 H         1 UNK         0.0812 
    125 H125       30.1736    1.4557   -6.2523 H         1 UNK         0.3205 
    126 H126       31.1802   -0.1411   -5.1305 H         1 UNK         0.0754 
    127 H127       33.5041    0.0418   -4.2933 H         1 UNK         0.0769 
    128 H128       32.6445    1.5499   -4.0579 H         1 UNK         0.0769 
    129 H129       33.8202    1.4113   -5.3575 H         1 UNK         0.0769 
    130 H130       34.2924   -0.4409   -6.3003 H         1 UNK         0.2981 
    131 H131       33.6053   -2.7556   -7.8258 H         1 UNK         0.0541 
    132 H132       33.8175    0.0995  -10.6502 H         1 UNK         0.3459 
    133 H133       33.5946    0.4933   -8.9648 H         1 UNK         0.3459 
    134 H134       36.3721   -1.4989   -7.7006 H         1 UNK         0.0612 
    135 H135       35.9765   -3.1612   -8.0408 H         1 UNK         0.0612 
    136 H136       34.6722   -4.6610   -6.3585 H         1 UNK         0.0624 
    137 H137       35.2925   -4.8037   -4.7337 H         1 UNK         0.0624 
@<TRIPOS>BOND
     1    1    2 1    
     2    1   72 1    
     3    1   73 1    
     4    1   74 1    
     5    2    3 2    
     6    2    4 am   BACKBONE|DICT|INTERRES
     7    4    5 1    
     8    4   75 1    
     9    5    6 1    
    10    5   35 1    
    11    5   76 1    
    12    6    7 1    
    13    6   77 1    
    14    6   78 1    
    15    7    8 1    
    16    8    9 1    
    17    8   79 1    
    18    8   80 1    
    19    9   10 ar   
    20    9   14 ar   
    21   10   11 ar   
    22   10   81 1    
    23   11   12 ar   
    24   11   71 1    
    25   12   13 ar   
    26   12   82 1    
    27   13   14 ar   
    28   13   15 1    
    29   14   83 1    
    30   15   16 1    
    31   15   84 1    
    32   15   85 1    
    33   16   17 1    
    34   17   18 1    
    35   17   86 1    
    36   17   87 1    
    37   18   19 1    
    38   18   37 1    
    39   18   88 1    
    40   19   20 am   BACKBONE|DICT|INTERRES
    41   19   89 1    
    42   20   21 2    
    43   20   22 1    
    44   22   23 1    
    45   22   24 1    
    46   22   90 1    
    47   23   91 1    
    48   23   92 1    
    49   23   93 1    
    50   24   25 am   BACKBONE|DICT|INTERRES
    51   24   94 1    
    52   25   26 2    
    53   25   27 1    
    54   27   28 1    
    55   27   29 1    
    56   27   95 1    
    57   28   96 1    
    58   28   97 1    
    59   28   98 1    
    60   29   30 am   BACKBONE|DICT|INTERRES
    61   29   99 1    
    62   30   31 2    
    63   30   32 1    
    64   32   33 1    
    65   32   34 1    
    66   32  100 1    
    67   33  101 1    
    68   33  102 1    
    69   33  103 1    
    70   34   35 am   BACKBONE|DICT|INTERRES
    71   34  104 1    
    72   35   36 2    
    73   37   38 2    
    74   37   39 am   BACKBONE|DICT|INTERRES
    75   39   40 1    
    76   39  105 1    
    77   40   41 1    
    78   40   42 1    
    79   40  106 1    
    80   41  107 1    
    81   41  108 1    
    82   41  109 1    
    83   42   43 2    
    84   42   44 am   BACKBONE|DICT|INTERRES
    85   44   45 1    
    86   44  110 1    
    87   45   46 1    
    88   45   47 1    
    89   45  111 1    
    90   46  112 1    
    91   46  113 1    
    92   46  114 1    
    93   47   48 2    
    94   47   49 am   BACKBONE|DICT|INTERRES
    95   49   50 1    
    96   49  115 1    
    97   50   51 1    
    98   50   52 1    
    99   50  116 1    
   100   51  117 1    
   101   51  118 1    
   102   51  119 1    
   103   52   53 2    
   104   52   54 am   BACKBONE|DICT|INTERRES
   105   54   55 1    
   106   54  120 1    
   107   55   56 1    
   108   55   57 1    
   109   55  121 1    
   110   56  122 1    
   111   56  123 1    
   112   56  124 1    
   113   57   58 2    
   114   57   59 am   BACKBONE|DICT|INTERRES
   115   59   60 1    
   116   59  125 1    
   117   60   61 1    
   118   60   62 1    
   119   60  126 1    
   120   61  127 1    
   121   61  128 1    
   122   61  129 1    
   123   62   63 2    
   124   62   64 am   BACKBONE|DICT|INTERRES
   125   64   65 1    
   126   64  130 1    
   127   65   66 1    
   128   65   69 1    
   129   65  131 1    
   130   66   67 am   BACKBONE|DICT|INTERRES
   131   66   68 2    
   132   67  132 1    
   133   67  133 1    
   134   69   70 1    
   135   69  134 1    
   136   69  135 1    
   137   70   71 1    
   138   71  136 1    
   139   71  137 1    
@<TRIPOS>SUBSTRUCTURE
     1 UNK         1 GROUP             0       ****    0 ROOT    
