@<TRIPOS>MOLECULE
3R137
137   139    1
SMALL
USER_CHARGES


@<TRIPOS>ATOM
      1 CA         26.5732   -7.3997   -4.1656 C.3       0 UNK        -0.2020 
      2 C          26.6774   -6.7507   -2.7935 C.2       0 UNK         0.4855 
      3 O          26.3409   -7.3792   -1.7897 O.2       0 UNK        -0.5197 
      4 N          27.1377   -5.4981   -2.7428 N.am      1 UNK        -0.4892 
      5 CA         27.2819   -4.6914   -1.5348 C.3       1 UNK         0.0835 
      6 C6         28.6260   -4.9858   -0.8184 C.3       12 UNK        -0.0855 
      7 S7         28.8758   -4.0322    0.7231 S.3       12 UNK        -0.2931 
      8 C8         30.6051   -3.4629    0.5662 C.3       12 UNK         0.0378 
      9 C9         30.8602   -2.6978   -0.7267 C.ar      12 UNK        -0.0802 
     10 C10        31.7538   -3.2008   -1.6763 C.ar      12 UNK        -0.0944 
     11 C11        31.9516   -2.5374   -2.8906 C.ar      12 UNK        -0.0787 
     12 C12        31.2504   -1.3539   -3.1470 C.ar      12 UNK        -0.0862 
     13 C13        30.3533   -0.8367   -2.2037 C.ar      12 UNK        -0.0733 
     14 C14        30.1775   -1.5083   -0.9901 C.ar      12 UNK        -0.0832 
     15 C15        29.4750    0.3737   -2.4987 C.3       12 UNK         0.0240 
     16 S16        30.1970    1.6210   -3.6107 S.3       12 UNK        -0.2522 
     17 C17        28.6810    2.5415   -4.0466 C.3       12 UNK        -0.0967 
     18 CA         28.1242    2.1267   -5.4300 C.3       5 UNK         0.0660 
     19 N          27.8218    0.6968   -5.5237 N.am      5 UNK        -0.4015 
     20 C          27.6976    0.0257   -6.6751 C.2       4 UNK         0.4946 
     21 O          27.8211    0.5411   -7.7859 O.2       4 UNK        -0.5353 
     22 CA         27.3315   -1.4627   -6.5641 C.3       4 UNK         0.0277 
     23 CB         28.5768   -2.3021   -6.2348 C.3       4 UNK        -0.1981 
     24 N          26.2869   -1.7095   -5.5652 N.am      4 UNK        -0.4209 
     25 C          25.0279   -1.2536   -5.6716 C.2       3 UNK         0.4942 
     26 O          24.6174   -0.6142   -6.6380 O.2       3 UNK        -0.5208 
     27 CA         24.0634   -1.5101   -4.4993 C.3       3 UNK         0.0250 
     28 CB         23.2793   -2.8111   -4.7328 C.3       3 UNK        -0.1990 
     29 N          24.7058   -1.5654   -3.1862 N.am      3 UNK        -0.4232 
     30 C          25.4975   -0.6264   -2.6484 C.2       2 UNK         0.4993 
     31 O          25.7576    0.4517   -3.1882 O.2       2 UNK        -0.5286 
     32 CA         26.1621   -0.9865   -1.3063 C.3       2 UNK         0.0209 
     33 CB         25.2978   -0.4884   -0.1378 C.3       2 UNK        -0.1931 
     34 N          26.4543   -2.4174   -1.1179 N.am      2 UNK        -0.4546 
     35 C          27.1066   -3.2250   -1.9707 C.2       1 UNK         0.5154 
     36 O          27.5161   -2.8690   -3.0807 O.2       1 UNK        -0.5181 
     37 C          26.8949    2.9697   -5.8129 C.2       5 UNK         0.5014 
     38 O          27.0587    3.9935   -6.4761 O.2       5 UNK        -0.5248 
     39 N          25.6880    2.5104   -5.4423 N.am      6 UNK        -0.4434 
     40 CA         24.4134    3.1180   -5.8445 C.3       6 UNK         0.0363 
     41 CB         23.2549    2.4434   -5.0946 C.3       6 UNK        -0.1936 
     42 C          24.1796    3.0675   -7.3670 C.2       6 UNK         0.5081 
     43 O          23.6904    4.0421   -7.9377 O.2       6 UNK        -0.5248 
     44 N          24.5721    1.9539   -8.0018 N.am      7 UNK        -0.4718 
     45 CA         24.5758    1.7663   -9.4568 C.3       7 UNK         0.0273 
     46 CB         24.6195    0.2592   -9.7612 C.3       7 UNK        -0.1935 
     47 C          25.7346    2.4881  -10.1742 C.2       7 UNK         0.5018 
     48 O          25.7422    2.5158  -11.4057 O.2       7 UNK        -0.5186 
     49 N          26.6866    3.0405   -9.4071 N.am      8 UNK        -0.4240 
     50 CA         27.9104    3.7221   -9.8403 C.3       8 UNK         0.0235 
     51 CB         27.5809    5.0261  -10.5987 C.3       8 UNK        -0.2000 
     52 C          28.8818    2.8011  -10.6044 C.2       8 UNK         0.4941 
     53 O          29.5351    3.2477  -11.5505 O.2       8 UNK        -0.5273 
     54 N          28.9785    1.5357  -10.1739 N.am      9 UNK        -0.4262 
     55 CA         29.9782    0.5793  -10.6481 C.3       9 UNK         0.0264 
     56 CB         29.4964   -0.8481  -10.3379 C.3       9 UNK        -0.1955 
     57 C          31.3345    0.8478   -9.9755 C.2       9 UNK         0.5031 
     58 O          31.3768    1.3986   -8.8719 O.2       9 UNK        -0.5390 
     59 N          32.4201    0.4286  -10.6396 N.am      10 UNK        -0.4204 
     60 CA         33.7924    0.5583  -10.1369 C.3       10 UNK         0.0237 
     61 CB         34.7889    0.2127  -11.2559 C.3       10 UNK        -0.1985 
     62 C          34.0610   -0.2975   -8.8863 C.2       10 UNK         0.4970 
     63 O          34.7580    0.1640   -7.9820 O.2       10 UNK        -0.4914 
     64 N          33.4952   -1.5139   -8.8624 N.am      11 UNK        -0.4285 
     65 CA         33.5791   -2.4822   -7.7560 C.3       11 UNK         0.1007 
     66 C          35.0285   -2.9694   -7.4300 C.2       11 UNK         0.5703 
     67 N          35.9381   -2.9820   -8.3980 N.am      11 UNK        -0.7361 
     68 O          35.3389   -3.3567   -6.3063 O.2       11 UNK        -0.4986 
     69 C69        32.7558   -2.0093   -6.5211 C.3       12 UNK        -0.0947 
     70 S70        32.1123   -3.4046   -5.5331 S.3       12 UNK        -0.2240 
     71 C71        32.9139   -3.1170   -3.9207 C.3       12 UNK         0.0194 
     72 H72        26.9074   -6.7318   -4.9595 H         1 UNK         0.0906 
     73 H73        27.1847   -8.3009   -4.2016 H         1 UNK         0.0906 
     74 H74        25.5404   -7.6801   -4.3708 H         1 UNK         0.0906 
     75 H75        27.3762   -4.9941   -3.5891 H         1 UNK         0.3140 
     76 H76        26.4627   -4.9367   -0.8547 H         1 UNK         0.1085 
     77 H77        29.4541   -4.8238   -1.5086 H         1 UNK         0.0836 
     78 H78        28.6726   -6.0434   -0.5542 H         1 UNK         0.0836 
     79 H79        31.2659   -4.3280    0.6419 H         1 UNK         0.0731 
     80 H80        30.8447   -2.8201    1.4144 H         1 UNK         0.0731 
     81 H81        32.2820   -4.1235   -1.4776 H         1 UNK         0.1312 
     82 H82        31.3815   -0.8593   -4.0990 H         1 UNK         0.1406 
     83 H83        29.4696   -1.1349   -0.2624 H         1 UNK         0.1631 
     84 H84        29.1884    0.8715   -1.5710 H         1 UNK         0.0717 
     85 H85        28.5619   -0.0063   -2.9528 H         1 UNK         0.0717 
     86 H86        27.9279    2.4124   -3.2660 H         1 UNK         0.0934 
     87 H87        28.9316    3.6043   -4.0469 H         1 UNK         0.0934 
     88 H88        28.8987    2.3443   -6.1699 H         1 UNK         0.0739 
     89 H89        27.6358    0.2139   -4.6572 H         1 UNK         0.3093 
     90 H90        26.9500   -1.7829   -7.5361 H         1 UNK         0.0818 
     91 H91        28.3454   -3.3670   -6.2164 H         1 UNK         0.0819 
     92 H92        29.3575   -2.1542   -6.9818 H         1 UNK         0.0819 
     93 H93        29.0024   -2.0382   -5.2654 H         1 UNK         0.0819 
     94 H94        26.5682   -2.1977   -4.7196 H         1 UNK         0.3041 
     95 H95        23.3511   -0.6847   -4.4721 H         1 UNK         0.0784 
     96 H96        22.7685   -2.7908   -5.6968 H         1 UNK         0.0793 
     97 H97        23.9340   -3.6838   -4.7292 H         1 UNK         0.0793 
     98 H98        22.5162   -2.9589   -3.9684 H         1 UNK         0.0793 
     99 H99        24.5671   -2.4127   -2.6558 H         1 UNK         0.3024 
    100 H100       27.1111   -0.4560   -1.2609 H         1 UNK         0.1171 
    101 H101       25.8044   -0.6245    0.8180 H         1 UNK         0.0786 
    102 H102       25.0820    0.5767   -0.2374 H         1 UNK         0.0786 
    103 H103       24.3418   -1.0114   -0.0897 H         1 UNK         0.0786 
    104 H104       26.1692   -2.8069   -0.2301 H         1 UNK         0.2977 
    105 H105       25.6405    1.6868   -4.8504 H         1 UNK         0.3127 
    106 H106       24.4440    4.1685   -5.5475 H         1 UNK         0.0770 
    107 H107       23.1168    1.4116   -5.4150 H         1 UNK         0.0814 
    108 H108       22.3167    2.9670   -5.2825 H         1 UNK         0.0814 
    109 H109       23.4188    2.4449   -4.0168 H         1 UNK         0.0814 
    110 H110       24.8820    1.1594   -7.4483 H         1 UNK         0.2983 
    111 H111       23.6451    2.1710   -9.8602 H         1 UNK         0.0947 
    112 H112       24.5848    0.0722  -10.8353 H         1 UNK         0.0806 
    113 H113       23.7712   -0.2603   -9.3152 H         1 UNK         0.0806 
    114 H114       25.5319   -0.2002   -9.3784 H         1 UNK         0.0806 
    115 H115       26.5784    2.9549   -8.4044 H         1 UNK         0.3000 
    116 H116       28.4328    4.0030   -8.9246 H         1 UNK         0.0850 
    117 H117       26.9082    5.6604  -10.0214 H         1 UNK         0.0810 
    118 H118       27.1122    4.8279  -11.5630 H         1 UNK         0.0810 
    119 H119       28.4850    5.6051  -10.7908 H         1 UNK         0.0810 
    120 H120       28.4590    1.2572   -9.3417 H         1 UNK         0.3040 
    121 H121       30.0863    0.6868  -11.7296 H         1 UNK         0.0766 
    122 H122       30.1705   -1.5920  -10.7636 H         1 UNK         0.0812 
    123 H123       28.5058   -1.0323  -10.7541 H         1 UNK         0.0812 
    124 H124       29.4466   -1.0322   -9.2643 H         1 UNK         0.0812 
    125 H125       32.3028   -0.0078  -11.5433 H         1 UNK         0.3205 
    126 H126       33.9468    1.6029   -9.8573 H         1 UNK         0.0754 
    127 H127       35.8176    0.3170  -10.9074 H         1 UNK         0.0769 
    128 H128       34.6710    0.8786  -12.1111 H         1 UNK         0.0769 
    129 H129       34.6666   -0.8121  -11.6088 H         1 UNK         0.0769 
    130 H130       32.9582   -1.8094   -9.6637 H         1 UNK         0.2981 
    131 H131       33.0829   -3.3704   -8.1487 H         1 UNK         0.0541 
    132 H132       36.8717   -3.3000   -8.1909 H         1 UNK         0.3459 
    133 H133       35.7033   -2.6752   -9.3281 H         1 UNK         0.3459 
    134 H134       33.3354   -1.3182   -5.9077 H         1 UNK         0.0612 
    135 H135       31.8829   -1.4427   -6.8499 H         1 UNK         0.0612 
    136 H136       33.7772   -2.4592   -4.0228 H         1 UNK         0.0624 
    137 H137       33.3091   -4.0734   -3.5756 H         1 UNK         0.0624 
@<TRIPOS>BOND
     1    1    2 1    
     2    1   72 1    
     3    1   73 1    
     4    1   74 1    
     5    2    3 2    
     6    2    4 am   BACKBONE|DICT|INTERRES
     7    4    5 1    
     8    4   75 1    
     9    5    6 1    
    10    5   35 1    
    11    5   76 1    
    12    6    7 1    
    13    6   77 1    
    14    6   78 1    
    15    7    8 1    
    16    8    9 1    
    17    8   79 1    
    18    8   80 1    
    19    9   10 ar   
    20    9   14 ar   
    21   10   11 ar   
    22   10   81 1    
    23   11   12 ar   
    24   11   71 1    
    25   12   13 ar   
    26   12   82 1    
    27   13   14 ar   
    28   13   15 1    
    29   14   83 1    
    30   15   16 1    
    31   15   84 1    
    32   15   85 1    
    33   16   17 1    
    34   17   18 1    
    35   17   86 1    
    36   17   87 1    
    37   18   19 1    
    38   18   37 1    
    39   18   88 1    
    40   19   20 am   BACKBONE|DICT|INTERRES
    41   19   89 1    
    42   20   21 2    
    43   20   22 1    
    44   22   23 1    
    45   22   24 1    
    46   22   90 1    
    47   23   91 1    
    48   23   92 1    
    49   23   93 1    
    50   24   25 am   BACKBONE|DICT|INTERRES
    51   24   94 1    
    52   25   26 2    
    53   25   27 1    
    54   27   28 1    
    55   27   29 1    
    56   27   95 1    
    57   28   96 1    
    58   28   97 1    
    59   28   98 1    
    60   29   30 am   BACKBONE|DICT|INTERRES
    61   29   99 1    
    62   30   31 2    
    63   30   32 1    
    64   32   33 1    
    65   32   34 1    
    66   32  100 1    
    67   33  101 1    
    68   33  102 1    
    69   33  103 1    
    70   34   35 am   BACKBONE|DICT|INTERRES
    71   34  104 1    
    72   35   36 2    
    73   37   38 2    
    74   37   39 am   BACKBONE|DICT|INTERRES
    75   39   40 1    
    76   39  105 1    
    77   40   41 1    
    78   40   42 1    
    79   40  106 1    
    80   41  107 1    
    81   41  108 1    
    82   41  109 1    
    83   42   43 2    
    84   42   44 am   BACKBONE|DICT|INTERRES
    85   44   45 1    
    86   44  110 1    
    87   45   46 1    
    88   45   47 1    
    89   45  111 1    
    90   46  112 1    
    91   46  113 1    
    92   46  114 1    
    93   47   48 2    
    94   47   49 am   BACKBONE|DICT|INTERRES
    95   49   50 1    
    96   49  115 1    
    97   50   51 1    
    98   50   52 1    
    99   50  116 1    
   100   51  117 1    
   101   51  118 1    
   102   51  119 1    
   103   52   53 2    
   104   52   54 am   BACKBONE|DICT|INTERRES
   105   54   55 1    
   106   54  120 1    
   107   55   56 1    
   108   55   57 1    
   109   55  121 1    
   110   56  122 1    
   111   56  123 1    
   112   56  124 1    
   113   57   58 2    
   114   57   59 am   BACKBONE|DICT|INTERRES
   115   59   60 1    
   116   59  125 1    
   117   60   61 1    
   118   60   62 1    
   119   60  126 1    
   120   61  127 1    
   121   61  128 1    
   122   61  129 1    
   123   62   63 2    
   124   62   64 am   BACKBONE|DICT|INTERRES
   125   64   65 1    
   126   64  130 1    
   127   65   66 1    
   128   65   69 1    
   129   65  131 1    
   130   66   67 am   BACKBONE|DICT|INTERRES
   131   66   68 2    
   132   67  132 1    
   133   67  133 1    
   134   69   70 1    
   135   69  134 1    
   136   69  135 1    
   137   70   71 1    
   138   71  136 1    
   139   71  137 1    
@<TRIPOS>SUBSTRUCTURE
     1 UNK         1 GROUP             0       ****    0 ROOT    
