@<TRIPOS>MOLECULE
3R137
137   139    1
SMALL
USER_CHARGES


@<TRIPOS>ATOM
      1 CA         25.2318   -7.5693   -0.2751 C.3       0 UNK        -0.2020 
      2 C          25.6810   -6.1990    0.2096 C.2       0 UNK         0.4855 
      3 O          25.2644   -5.7630    1.2830 O.2       0 UNK        -0.5197 
      4 N          26.5291   -5.5170   -0.5725 N.am      1 UNK        -0.4892 
      5 CA         27.0467   -4.1733   -0.2742 C.3       1 UNK         0.0835 
      6 C6         28.2920   -3.8518   -1.1399 C.3       12 UNK        -0.0855 
      7 S7         29.4652   -2.7344   -0.3007 S.3       12 UNK        -0.2931 
      8 C8         31.0277   -3.1566   -1.1370 C.3       12 UNK         0.0378 
      9 C9         31.0611   -2.6216   -2.5612 C.ar      12 UNK        -0.0802 
     10 C10        31.5970   -1.3568   -2.8251 C.ar      12 UNK        -0.0944 
     11 C11        31.6352   -0.8635   -4.1324 C.ar      12 UNK        -0.0787 
     12 C12        31.0971   -1.6262   -5.1706 C.ar      12 UNK        -0.0862 
     13 C13        30.5607   -2.8925   -4.9230 C.ar      12 UNK        -0.0733 
     14 C14        30.5665   -3.3937   -3.6174 C.ar      12 UNK        -0.0832 
     15 C15        29.9966   -3.7130   -6.0779 C.3       12 UNK         0.0240 
     16 S16        28.3315   -4.3926   -5.7651 S.3       12 UNK        -0.2522 
     17 C17        27.3808   -2.9465   -5.1889 C.3       12 UNK        -0.0967 
     18 CA         26.9026   -2.0139   -6.3346 C.3       5 UNK         0.0660 
     19 N          25.5249   -1.5639   -6.1232 N.am      5 UNK        -0.4015 
     20 C          24.7462   -1.0151   -7.0681 C.2       4 UNK         0.4946 
     21 O          25.0892   -0.8824   -8.2427 O.2       4 UNK        -0.5353 
     22 CA         23.3575   -0.5059   -6.6336 C.3       4 UNK         0.0277 
     23 CB         22.2960   -1.5946   -6.8579 C.3       4 UNK        -0.1981 
     24 N          23.3014   -0.0565   -5.2399 N.am      4 UNK        -0.4209 
     25 C          24.0264    0.9464   -4.7229 C.2       3 UNK         0.4942 
     26 O          24.7723    1.6614   -5.3893 O.2       3 UNK        -0.5208 
     27 CA         23.9656    1.1450   -3.1975 C.3       3 UNK         0.0250 
     28 CB         22.9291    2.2213   -2.8392 C.3       3 UNK        -0.1990 
     29 N          23.6840   -0.0805   -2.4369 N.am      3 UNK        -0.4232 
     30 C          24.4166   -1.2029   -2.4801 C.2       2 UNK         0.4993 
     31 O          25.4000   -1.3518   -3.2112 O.2       2 UNK        -0.5286 
     32 CA         23.9098   -2.3787   -1.6306 C.3       2 UNK         0.0209 
     33 CB         22.8085   -3.1422   -2.3856 C.3       2 UNK        -0.1931 
     34 N          24.9875   -3.3129   -1.3055 N.am      2 UNK        -0.4546 
     35 C          25.9627   -3.0797   -0.4155 C.2       1 UNK         0.5154 
     36 O          26.0123   -2.0700    0.2896 O.2       1 UNK        -0.5181 
     37 C          27.8431   -0.8054   -6.5136 C.2       5 UNK         0.5014 
     38 O          28.6758   -0.8027   -7.4210 O.2       5 UNK        -0.5248 
     39 N          27.6683    0.2199   -5.6662 N.am      6 UNK        -0.4434 
     40 CA         28.4001    1.4849   -5.7444 C.3       6 UNK         0.0363 
     41 CB         28.1653    2.3049   -4.4666 C.3       6 UNK        -0.1936 
     42 C          28.0297    2.2912   -6.9999 C.2       6 UNK         0.5081 
     43 O          28.9222    2.8202   -7.6613 O.2       6 UNK        -0.5248 
     44 N          26.7329    2.3238   -7.3416 N.am      7 UNK        -0.4718 
     45 CA         26.1878    2.9736   -8.5399 C.3       7 UNK         0.0273 
     46 CB         24.6530    2.9365   -8.4887 C.3       7 UNK        -0.1935 
     47 C          26.6919    2.3759   -9.8667 C.2       7 UNK         0.5018 
     48 O          26.7153    3.0879  -10.8711 O.2       7 UNK        -0.5186 
     49 N          27.1183    1.1040   -9.8485 N.am      8 UNK        -0.4240 
     50 CA         27.7905    0.4343  -10.9663 C.3       8 UNK         0.0235 
     51 CB         27.7397   -1.0883  -10.7547 C.3       8 UNK        -0.2000 
     52 C          29.2421    0.9111  -11.1845 C.2       8 UNK         0.4941 
     53 O          29.8297    0.5617  -12.2088 O.2       8 UNK        -0.5273 
     54 N          29.7917    1.6919  -10.2386 N.am      9 UNK        -0.4262 
     55 CA         31.1090    2.3374  -10.2596 C.3       9 UNK         0.0264 
     56 CB         31.2041    3.3647  -11.4081 C.3       9 UNK        -0.1955 
     57 C          32.2945    1.3555  -10.2376 C.2       9 UNK         0.5031 
     58 O          33.3803    1.7045  -10.7051 O.2       9 UNK        -0.5390 
     59 N          32.0974    0.1634   -9.6534 N.am      10 UNK        -0.4204 
     60 CA         33.1257   -0.8781   -9.5224 C.3       10 UNK         0.0237 
     61 CB         32.4832   -2.1768   -9.0098 C.3       10 UNK        -0.1985 
     62 C          34.3248   -0.4699   -8.6422 C.2       10 UNK         0.4970 
     63 O          35.4164   -1.0076   -8.8319 O.2       10 UNK        -0.4914 
     64 N          34.1103    0.4849   -7.7272 N.am      11 UNK        -0.4285 
     65 CA         35.1602    1.1447   -6.9347 C.3       11 UNK         0.1007 
     66 C          35.9219    2.2689   -7.7000 C.2       11 UNK         0.5703 
     67 N          35.5651    2.6178   -8.9315 N.am      11 UNK        -0.7361 
     68 O          36.8749    2.8323   -7.1667 O.2       11 UNK        -0.4986 
     69 C69        34.6143    1.6507   -5.5714 C.3       12 UNK        -0.0947 
     70 S70        34.0993    0.2696   -4.4998 S.3       12 UNK        -0.2240 
     71 C71        32.2930    0.4720   -4.4371 C.3       12 UNK         0.0194 
     72 H72        24.1485   -7.5891   -0.3917 H         1 UNK         0.0906 
     73 H73        25.6807   -7.8322   -1.2327 H         1 UNK         0.0906 
     74 H74        25.5102   -8.3333    0.4503 H         1 UNK         0.0906 
     75 H75        26.8443   -5.9320   -1.4384 H         1 UNK         0.3140 
     76 H76        27.3497   -4.1816    0.7758 H         1 UNK         0.1085 
     77 H77        28.0143   -3.4296   -2.1080 H         1 UNK         0.0836 
     78 H78        28.8311   -4.7742   -1.3611 H         1 UNK         0.0836 
     79 H79        31.8557   -2.7356   -0.5645 H         1 UNK         0.0731 
     80 H80        31.1762   -4.2375   -1.1294 H         1 UNK         0.0731 
     81 H81        32.0032   -0.7639   -2.0169 H         1 UNK         0.1312 
     82 H82        31.1053   -1.2321   -6.1762 H         1 UNK         0.1406 
     83 H83        30.1642   -4.3783   -3.4233 H         1 UNK         0.1631 
     84 H84        30.6774   -4.5398   -6.2835 H         1 UNK         0.0717 
     85 H85        29.9574   -3.1200   -6.9923 H         1 UNK         0.0717 
     86 H86        26.5187   -3.3677   -4.6689 H         1 UNK         0.0934 
     87 H87        27.9277   -2.4084   -4.4121 H         1 UNK         0.0934 
     88 H88        26.9110   -2.5739   -7.2726 H         1 UNK         0.0739 
     89 H89        25.1984   -1.5836   -5.1619 H         1 UNK         0.3093 
     90 H90        23.1068    0.3484   -7.2644 H         1 UNK         0.0818 
     91 H91        21.2938   -1.2235   -6.6428 H         1 UNK         0.0819 
     92 H92        22.2977   -1.9322   -7.8954 H         1 UNK         0.0819 
     93 H93        22.4737   -2.4693   -6.2307 H         1 UNK         0.0819 
     94 H94        22.7081   -0.5827   -4.6157 H         1 UNK         0.3041 
     95 H95        24.9492    1.5007   -2.8835 H         1 UNK         0.0784 
     96 H96        23.1304    3.1503   -3.3751 H         1 UNK         0.0793 
     97 H97        21.9160    1.9097   -3.0970 H         1 UNK         0.0793 
     98 H98        22.9495    2.4546   -1.7745 H         1 UNK         0.0793 
     99 H99        22.8793   -0.0508   -1.8266 H         1 UNK         0.3024 
    100 H100       23.4994   -1.9865   -0.6970 H         1 UNK         0.1171 
    101 H101       21.9593   -2.4946   -2.6074 H         1 UNK         0.0786 
    102 H102       22.4284   -3.9759   -1.7945 H         1 UNK         0.0786 
    103 H103       23.1704   -3.5421   -3.3341 H         1 UNK         0.0786 
    104 H104       25.0327   -4.1633   -1.8463 H         1 UNK         0.2977 
    105 H105       26.9476    0.1505   -4.9613 H         1 UNK         0.3127 
    106 H106       29.4649    1.2510   -5.8045 H         1 UNK         0.0770 
    107 H107       27.1144    2.5649   -4.3365 H         1 UNK         0.0814 
    108 H108       28.7299    3.2377   -4.4954 H         1 UNK         0.0814 
    109 H109       28.4891    1.7582   -3.5807 H         1 UNK         0.0814 
    110 H110       26.0550    1.9172   -6.6992 H         1 UNK         0.2983 
    111 H111       26.5058    4.0181   -8.5156 H         1 UNK         0.0947 
    112 H112       24.2214    3.4865   -9.3261 H         1 UNK         0.0806 
    113 H113       24.2719    3.3886   -7.5728 H         1 UNK         0.0806 
    114 H114       24.2778    1.9151   -8.5434 H         1 UNK         0.0806 
    115 H115       27.0284    0.5778   -8.9888 H         1 UNK         0.3000 
    116 H116       27.2367    0.6652  -11.8788 H         1 UNK         0.0850 
    117 H117       28.1269   -1.6147  -11.6280 H         1 UNK         0.0810 
    118 H118       26.7184   -1.4347  -10.5942 H         1 UNK         0.0810 
    119 H119       28.3382   -1.4008   -9.8998 H         1 UNK         0.0810 
    120 H120       29.2331    1.9160   -9.4198 H         1 UNK         0.3040 
    121 H121       31.1763    2.8953   -9.3245 H         1 UNK         0.0766 
    122 H122       32.1139    3.9607  -11.3271 H         1 UNK         0.0812 
    123 H123       30.3628    4.0576  -11.3906 H         1 UNK         0.0812 
    124 H124       31.2206    2.8801  -12.3848 H         1 UNK         0.0812 
    125 H125       31.1763   -0.0480   -9.2957 H         1 UNK         0.3205 
    126 H126       33.5179   -1.0713  -10.5232 H         1 UNK         0.0754 
    127 H127       33.2151   -2.9850   -8.9748 H         1 UNK         0.0769 
    128 H128       31.6717   -2.5046   -9.6602 H         1 UNK         0.0769 
    129 H129       32.0831   -2.0610   -8.0047 H         1 UNK         0.0769 
    130 H130       33.1847    0.8744   -7.6475 H         1 UNK         0.2981 
    131 H131       35.9242    0.3970   -6.7125 H         1 UNK         0.0541 
    132 H132       34.7996    2.1639   -9.4187 H         1 UNK         0.3459 
    133 H133       36.0845    3.3440   -9.3979 H         1 UNK         0.3459 
    134 H134       33.7897    2.3506   -5.7160 H         1 UNK         0.0612 
    135 H135       35.3842    2.1990   -5.0253 H         1 UNK         0.0612 
    136 H136       31.9301    0.8616   -5.3893 H         1 UNK         0.0624 
    137 H137       32.0320    1.2084   -3.6758 H         1 UNK         0.0624 
@<TRIPOS>BOND
     1    1    2 1    
     2    1   72 1    
     3    1   73 1    
     4    1   74 1    
     5    2    3 2    
     6    2    4 am   BACKBONE|DICT|INTERRES
     7    4    5 1    
     8    4   75 1    
     9    5    6 1    
    10    5   35 1    
    11    5   76 1    
    12    6    7 1    
    13    6   77 1    
    14    6   78 1    
    15    7    8 1    
    16    8    9 1    
    17    8   79 1    
    18    8   80 1    
    19    9   10 ar   
    20    9   14 ar   
    21   10   11 ar   
    22   10   81 1    
    23   11   12 ar   
    24   11   71 1    
    25   12   13 ar   
    26   12   82 1    
    27   13   14 ar   
    28   13   15 1    
    29   14   83 1    
    30   15   16 1    
    31   15   84 1    
    32   15   85 1    
    33   16   17 1    
    34   17   18 1    
    35   17   86 1    
    36   17   87 1    
    37   18   19 1    
    38   18   37 1    
    39   18   88 1    
    40   19   20 am   BACKBONE|DICT|INTERRES
    41   19   89 1    
    42   20   21 2    
    43   20   22 1    
    44   22   23 1    
    45   22   24 1    
    46   22   90 1    
    47   23   91 1    
    48   23   92 1    
    49   23   93 1    
    50   24   25 am   BACKBONE|DICT|INTERRES
    51   24   94 1    
    52   25   26 2    
    53   25   27 1    
    54   27   28 1    
    55   27   29 1    
    56   27   95 1    
    57   28   96 1    
    58   28   97 1    
    59   28   98 1    
    60   29   30 am   BACKBONE|DICT|INTERRES
    61   29   99 1    
    62   30   31 2    
    63   30   32 1    
    64   32   33 1    
    65   32   34 1    
    66   32  100 1    
    67   33  101 1    
    68   33  102 1    
    69   33  103 1    
    70   34   35 am   BACKBONE|DICT|INTERRES
    71   34  104 1    
    72   35   36 2    
    73   37   38 2    
    74   37   39 am   BACKBONE|DICT|INTERRES
    75   39   40 1    
    76   39  105 1    
    77   40   41 1    
    78   40   42 1    
    79   40  106 1    
    80   41  107 1    
    81   41  108 1    
    82   41  109 1    
    83   42   43 2    
    84   42   44 am   BACKBONE|DICT|INTERRES
    85   44   45 1    
    86   44  110 1    
    87   45   46 1    
    88   45   47 1    
    89   45  111 1    
    90   46  112 1    
    91   46  113 1    
    92   46  114 1    
    93   47   48 2    
    94   47   49 am   BACKBONE|DICT|INTERRES
    95   49   50 1    
    96   49  115 1    
    97   50   51 1    
    98   50   52 1    
    99   50  116 1    
   100   51  117 1    
   101   51  118 1    
   102   51  119 1    
   103   52   53 2    
   104   52   54 am   BACKBONE|DICT|INTERRES
   105   54   55 1    
   106   54  120 1    
   107   55   56 1    
   108   55   57 1    
   109   55  121 1    
   110   56  122 1    
   111   56  123 1    
   112   56  124 1    
   113   57   58 2    
   114   57   59 am   BACKBONE|DICT|INTERRES
   115   59   60 1    
   116   59  125 1    
   117   60   61 1    
   118   60   62 1    
   119   60  126 1    
   120   61  127 1    
   121   61  128 1    
   122   61  129 1    
   123   62   63 2    
   124   62   64 am   BACKBONE|DICT|INTERRES
   125   64   65 1    
   126   64  130 1    
   127   65   66 1    
   128   65   69 1    
   129   65  131 1    
   130   66   67 am   BACKBONE|DICT|INTERRES
   131   66   68 2    
   132   67  132 1    
   133   67  133 1    
   134   69   70 1    
   135   69  134 1    
   136   69  135 1    
   137   70   71 1    
   138   71  136 1    
   139   71  137 1    
@<TRIPOS>SUBSTRUCTURE
     1 UNK         1 GROUP             0       ****    0 ROOT    
