@<TRIPOS>MOLECULE
3R137
137   139    1
SMALL
USER_CHARGES


@<TRIPOS>ATOM
      1 CA         26.3986   -6.7184    1.6459 C.3       0 UNK        -0.2020 
      2 C          26.9386   -5.6009    0.7667 C.2       0 UNK         0.4855 
      3 O          26.9535   -5.7408   -0.4567 O.2       0 UNK        -0.5197 
      4 N          27.3719   -4.4896    1.3798 N.am      1 UNK        -0.4892 
      5 CA         27.9309   -3.2789    0.7574 C.3       1 UNK         0.0835 
      6 C6         29.1798   -3.5686   -0.1209 C.3       12 UNK        -0.0855 
      7 S7         30.3142   -2.1487   -0.3066 S.3       12 UNK        -0.2931 
      8 C8         29.6806   -1.2906   -1.7855 C.3       12 UNK         0.0378 
      9 C9         29.9985   -2.0103   -3.0899 C.ar      12 UNK        -0.0802 
     10 C10        31.0935   -1.6196   -3.8657 C.ar      12 UNK        -0.0944 
     11 C11        31.3246   -2.1952   -5.1247 C.ar      12 UNK        -0.0787 
     12 C12        30.4777   -3.2210   -5.5645 C.ar      12 UNK        -0.0862 
     13 C13        29.3975   -3.6420   -4.7828 C.ar      12 UNK        -0.0733 
     14 C14        29.1495   -3.0103   -3.5647 C.ar      12 UNK        -0.0832 
     15 C15        28.5016   -4.7910   -5.2225 C.3       12 UNK         0.0240 
     16 S16        26.7717   -4.2714   -5.4657 S.3       12 UNK        -0.2522 
     17 C17        26.7500   -3.8243   -7.2309 C.3       12 UNK        -0.0967 
     18 CA         26.5000   -2.3277   -7.5262 C.3       5 UNK         0.0660 
     19 N          25.3014   -1.7814   -6.8880 N.am      5 UNK        -0.4015 
     20 C          24.6463   -0.7118   -7.3617 C.2       4 UNK         0.4946 
     21 O          24.9650   -0.1141   -8.3919 O.2       4 UNK        -0.5353 
     22 CA         23.4661   -0.1984   -6.5230 C.3       4 UNK         0.0277 
     23 CB         22.2730   -1.1662   -6.5934 C.3       4 UNK        -0.1981 
     24 N          23.8287    0.0451   -5.1244 N.am      4 UNK        -0.4209 
     25 C          24.7419    0.9394   -4.7176 C.2       3 UNK         0.4942 
     26 O          25.3868    1.6544   -5.4847 O.2       3 UNK        -0.5208 
     27 CA         24.9820    1.0641   -3.2021 C.3       3 UNK         0.0250 
     28 CB         24.1515    2.2216   -2.6252 C.3       3 UNK        -0.1990 
     29 N          24.7046   -0.1582   -2.4403 N.am      3 UNK        -0.4232 
     30 C          25.4071   -1.2948   -2.5416 C.2       2 UNK         0.4993 
     31 O          26.3207   -1.4628   -3.3504 O.2       2 UNK        -0.5286 
     32 CA         24.9823   -2.4471   -1.6144 C.3       2 UNK         0.0209 
     33 CB         24.2561   -3.5419   -2.4118 C.3       2 UNK        -0.1931 
     34 N          26.1085   -3.0461   -0.8928 N.am      2 UNK        -0.4546 
     35 C          26.8502   -2.4348    0.0407 C.2       1 UNK         0.5154 
     36 O          26.6733   -1.2653    0.3857 O.2       1 UNK        -0.5181 
     37 C          27.7392   -1.4440   -7.2978 C.2       5 UNK         0.5014 
     38 O          28.6027   -1.4216   -8.1745 O.2       5 UNK        -0.5248 
     39 N          27.7860   -0.6855   -6.1888 N.am      6 UNK        -0.4434 
     40 CA         28.8209    0.3217   -5.9317 C.3       6 UNK         0.0363 
     41 CB         28.6410    0.9495   -4.5409 C.3       6 UNK        -0.1936 
     42 C          28.8553    1.4134   -7.0077 C.2       6 UNK         0.5081 
     43 O          29.9353    1.7417   -7.4976 O.2       6 UNK        -0.5248 
     44 N          27.6724    1.9194   -7.3813 N.am      7 UNK        -0.4718 
     45 CA         27.4916    2.8719   -8.4746 C.3       7 UNK         0.0273 
     46 CB         26.0589    3.4268   -8.4412 C.3       7 UNK        -0.1935 
     47 C          27.8120    2.2595   -9.8477 C.2       7 UNK         0.5018 
     48 O          28.4897    2.9067  -10.6460 O.2       7 UNK        -0.5186 
     49 N          27.3369    1.0286  -10.0939 N.am      8 UNK        -0.4240 
     50 CA         27.5256    0.3100  -11.3588 C.3       8 UNK         0.0235 
     51 CB         26.6366   -0.9430  -11.3916 C.3       8 UNK        -0.2000 
     52 C          28.9918   -0.0594  -11.6429 C.2       8 UNK         0.4941 
     53 O          29.4627    0.1677  -12.7580 O.2       8 UNK        -0.5273 
     54 N          29.6877   -0.6121  -10.6392 N.am      9 UNK        -0.4262 
     55 CA         31.0987   -1.0046  -10.7287 C.3       9 UNK         0.0264 
     56 CB         31.3533   -2.1933   -9.7872 C.3       9 UNK        -0.1955 
     57 C          32.0762    0.1545  -10.4515 C.2       9 UNK         0.5031 
     58 O          33.2803   -0.0307  -10.6341 O.2       9 UNK        -0.5390 
     59 N          31.5514    1.3177  -10.0389 N.am      10 UNK        -0.4204 
     60 CA         32.2531    2.5742   -9.7590 C.3       10 UNK         0.0237 
     61 CB         32.8765    3.1561  -11.0465 C.3       10 UNK        -0.1985 
     62 C          33.2528    2.4643   -8.5917 C.2       10 UNK         0.4970 
     63 O          34.4047    2.8850   -8.7220 O.2       10 UNK        -0.4914 
     64 N          32.7829    1.9248   -7.4605 N.am      11 UNK        -0.4285 
     65 CA         33.4824    1.9929   -6.1685 C.3       11 UNK         0.1007 
     66 C          33.4170    3.4253   -5.5675 C.2       11 UNK         0.5703 
     67 N          34.4231    3.8188   -4.7984 N.am      11 UNK        -0.7361 
     68 O          32.4541    4.1665   -5.7589 O.2       11 UNK        -0.4986 
     69 C69        32.9377    0.9428   -5.1629 C.3       12 UNK        -0.0947 
     70 S70        33.7434   -0.6849   -5.3494 S.3       12 UNK        -0.2240 
     71 C71        32.4171   -1.7016   -6.0795 C.3       12 UNK         0.0194 
     72 H72        26.9762   -7.6292    1.4901 H         1 UNK         0.0906 
     73 H73        26.4444   -6.4650    2.7049 H         1 UNK         0.0906 
     74 H74        25.3596   -6.9264    1.3913 H         1 UNK         0.0906 
     75 H75        27.2969   -4.4407    2.3874 H         1 UNK         0.3140 
     76 H76        28.2692   -2.6740    1.6009 H         1 UNK         0.1085 
     77 H77        29.7715   -4.3489    0.3603 H         1 UNK         0.0836 
     78 H78        28.9080   -3.9925   -1.0834 H         1 UNK         0.0836 
     79 H79        28.6055   -1.1366   -1.7018 H         1 UNK         0.0731 
     80 H80        30.1146   -0.2899   -1.8068 H         1 UNK         0.0731 
     81 H81        31.7278   -0.8286   -3.4963 H         1 UNK         0.1312 
     82 H82        30.6496   -3.6807   -6.5282 H         1 UNK         0.1406 
     83 H83        28.2707   -3.2889   -3.0013 H         1 UNK         0.1631 
     84 H84        28.8862   -5.2742   -6.1216 H         1 UNK         0.0717 
     85 H85        28.5198   -5.5546   -4.4436 H         1 UNK         0.0717 
     86 H86        27.6675   -4.1578   -7.7193 H         1 UNK         0.0934 
     87 H87        25.9555   -4.4112   -7.6944 H         1 UNK         0.0934 
     88 H88        26.3165   -2.2848   -8.6005 H         1 UNK         0.0739 
     89 H89        25.0161   -2.2075   -6.0178 H         1 UNK         0.3093 
     90 H90        23.1530    0.7559   -6.9523 H         1 UNK         0.0818 
     91 H91        21.3971   -0.7510   -6.0945 H         1 UNK         0.0819 
     92 H92        21.9902   -1.3606   -7.6290 H         1 UNK         0.0819 
     93 H93        22.4971   -2.1281   -6.1307 H         1 UNK         0.0819 
     94 H94        23.3421   -0.4918   -4.4220 H         1 UNK         0.3041 
     95 H95        26.0368    1.3040   -3.0585 H         1 UNK         0.0784 
     96 H96        24.3602    3.1527   -3.1544 H         1 UNK         0.0793 
     97 H97        23.0804    2.0328   -2.7087 H         1 UNK         0.0793 
     98 H98        24.3832    2.3916   -1.5735 H         1 UNK         0.0793 
     99 H99        23.9621   -0.1017   -1.7578 H         1 UNK         0.3024 
    100 H100       24.2899   -2.0561   -0.8657 H         1 UNK         0.1171 
    101 H101       23.8747   -4.3238   -1.7548 H         1 UNK         0.0786 
    102 H102       23.4047   -3.1337   -2.9580 H         1 UNK         0.0786 
    103 H103       24.9169   -4.0123   -3.1401 H         1 UNK         0.0786 
    104 H104       26.3137   -4.0242   -1.0772 H         1 UNK         0.2977 
    105 H105       27.0736   -0.8044   -5.4796 H         1 UNK         0.3127 
    106 H106       29.7783   -0.1937   -5.9590 H         1 UNK         0.0770 
    107 H107       27.8451    1.6929   -4.5275 H         1 UNK         0.0814 
    108 H108       29.5546    1.4551   -4.2272 H         1 UNK         0.0814 
    109 H109       28.4050    0.2005   -3.7887 H         1 UNK         0.0814 
    110 H110       26.8366    1.6262   -6.8823 H         1 UNK         0.2983 
    111 H111       28.1831    3.7020   -8.3130 H         1 UNK         0.0947 
    112 H112       25.9019    4.1538   -9.2391 H         1 UNK         0.0806 
    113 H113       25.8526    3.9307   -7.4967 H         1 UNK         0.0806 
    114 H114       25.3160    2.6378   -8.5649 H         1 UNK         0.0806 
    115 H115       26.7566    0.5844   -9.3904 H         1 UNK         0.3000 
    116 H116       27.1929    0.9751  -12.1589 H         1 UNK         0.0850 
    117 H117       26.6578   -1.4052  -12.3793 H         1 UNK         0.0810 
    118 H118       25.5967   -0.7039  -11.1670 H         1 UNK         0.0810 
    119 H119       26.9734   -1.6946  -10.6790 H         1 UNK         0.0810 
    120 H120       29.2233   -0.7990   -9.7494 H         1 UNK         0.3040 
    121 H121       31.3046   -1.3461  -11.7454 H         1 UNK         0.0766 
    122 H122       30.7555   -3.0579  -10.0755 H         1 UNK         0.0812 
    123 H123       31.1026   -1.9499   -8.7573 H         1 UNK         0.0812 
    124 H124       32.3996   -2.5007   -9.8084 H         1 UNK         0.0812 
    125 H125       30.5539    1.3403   -9.8731 H         1 UNK         0.3205 
    126 H126       31.4847    3.2750   -9.4282 H         1 UNK         0.0754 
    127 H127       33.2922    4.1479  -10.8649 H         1 UNK         0.0769 
    128 H128       32.1308    3.2576  -11.8353 H         1 UNK         0.0769 
    129 H129       33.6844    2.5301  -11.4267 H         1 UNK         0.0769 
    130 H130       31.7920    1.6964   -7.4254 H         1 UNK         0.2981 
    131 H131       34.5378    1.7789   -6.3507 H         1 UNK         0.0541 
    132 H132       35.2122    3.2162   -4.6228 H         1 UNK         0.3459 
    133 H133       34.3946    4.7389   -4.3876 H         1 UNK         0.3459 
    134 H134       33.1269    1.2484   -4.1319 H         1 UNK         0.0612 
    135 H135       31.8546    0.8509   -5.2484 H         1 UNK         0.0612 
    136 H136       32.8858   -2.5613   -6.5604 H         1 UNK         0.0624 
    137 H137       31.9492   -1.1173   -6.8712 H         1 UNK         0.0624 
@<TRIPOS>BOND
     1    1    2 1    
     2    1   72 1    
     3    1   73 1    
     4    1   74 1    
     5    2    3 2    
     6    2    4 am   BACKBONE|DICT|INTERRES
     7    4    5 1    
     8    4   75 1    
     9    5    6 1    
    10    5   35 1    
    11    5   76 1    
    12    6    7 1    
    13    6   77 1    
    14    6   78 1    
    15    7    8 1    
    16    8    9 1    
    17    8   79 1    
    18    8   80 1    
    19    9   10 ar   
    20    9   14 ar   
    21   10   11 ar   
    22   10   81 1    
    23   11   12 ar   
    24   11   71 1    
    25   12   13 ar   
    26   12   82 1    
    27   13   14 ar   
    28   13   15 1    
    29   14   83 1    
    30   15   16 1    
    31   15   84 1    
    32   15   85 1    
    33   16   17 1    
    34   17   18 1    
    35   17   86 1    
    36   17   87 1    
    37   18   19 1    
    38   18   37 1    
    39   18   88 1    
    40   19   20 am   BACKBONE|DICT|INTERRES
    41   19   89 1    
    42   20   21 2    
    43   20   22 1    
    44   22   23 1    
    45   22   24 1    
    46   22   90 1    
    47   23   91 1    
    48   23   92 1    
    49   23   93 1    
    50   24   25 am   BACKBONE|DICT|INTERRES
    51   24   94 1    
    52   25   26 2    
    53   25   27 1    
    54   27   28 1    
    55   27   29 1    
    56   27   95 1    
    57   28   96 1    
    58   28   97 1    
    59   28   98 1    
    60   29   30 am   BACKBONE|DICT|INTERRES
    61   29   99 1    
    62   30   31 2    
    63   30   32 1    
    64   32   33 1    
    65   32   34 1    
    66   32  100 1    
    67   33  101 1    
    68   33  102 1    
    69   33  103 1    
    70   34   35 am   BACKBONE|DICT|INTERRES
    71   34  104 1    
    72   35   36 2    
    73   37   38 2    
    74   37   39 am   BACKBONE|DICT|INTERRES
    75   39   40 1    
    76   39  105 1    
    77   40   41 1    
    78   40   42 1    
    79   40  106 1    
    80   41  107 1    
    81   41  108 1    
    82   41  109 1    
    83   42   43 2    
    84   42   44 am   BACKBONE|DICT|INTERRES
    85   44   45 1    
    86   44  110 1    
    87   45   46 1    
    88   45   47 1    
    89   45  111 1    
    90   46  112 1    
    91   46  113 1    
    92   46  114 1    
    93   47   48 2    
    94   47   49 am   BACKBONE|DICT|INTERRES
    95   49   50 1    
    96   49  115 1    
    97   50   51 1    
    98   50   52 1    
    99   50  116 1    
   100   51  117 1    
   101   51  118 1    
   102   51  119 1    
   103   52   53 2    
   104   52   54 am   BACKBONE|DICT|INTERRES
   105   54   55 1    
   106   54  120 1    
   107   55   56 1    
   108   55   57 1    
   109   55  121 1    
   110   56  122 1    
   111   56  123 1    
   112   56  124 1    
   113   57   58 2    
   114   57   59 am   BACKBONE|DICT|INTERRES
   115   59   60 1    
   116   59  125 1    
   117   60   61 1    
   118   60   62 1    
   119   60  126 1    
   120   61  127 1    
   121   61  128 1    
   122   61  129 1    
   123   62   63 2    
   124   62   64 am   BACKBONE|DICT|INTERRES
   125   64   65 1    
   126   64  130 1    
   127   65   66 1    
   128   65   69 1    
   129   65  131 1    
   130   66   67 am   BACKBONE|DICT|INTERRES
   131   66   68 2    
   132   67  132 1    
   133   67  133 1    
   134   69   70 1    
   135   69  134 1    
   136   69  135 1    
   137   70   71 1    
   138   71  136 1    
   139   71  137 1    
@<TRIPOS>SUBSTRUCTURE
     1 UNK         1 GROUP             0       ****    0 ROOT    
