@<TRIPOS>MOLECULE
3R137
137   139    1
SMALL
USER_CHARGES


@<TRIPOS>ATOM
      1 CA         26.2235   -4.9122   -8.2937 C.3       0 UNK        -0.2020 
      2 C          26.2618   -5.1455   -6.7911 C.2       0 UNK         0.4855 
      3 O          26.2282   -6.2926   -6.3454 O.2       0 UNK        -0.5197 
      4 N          26.3300   -4.0630   -6.0094 N.am      1 UNK        -0.4892 
      5 CA         26.3126   -4.0785   -4.5438 C.3       1 UNK         0.0835 
      6 C6         27.1208   -2.8731   -4.0016 C.3       12 UNK        -0.0855 
      7 S7         27.4273   -2.8916   -2.2008 S.3       12 UNK        -0.2931 
      8 C8         29.0305   -3.7488   -2.0829 C.3       12 UNK         0.0378 
      9 C9         30.1697   -2.9492   -2.7010 C.ar      12 UNK        -0.0802 
     10 C10        30.8671   -3.4559   -3.8007 C.ar      12 UNK        -0.0944 
     11 C11        31.9336   -2.7437   -4.3564 C.ar      12 UNK        -0.0787 
     12 C12        32.2712   -1.4930   -3.8279 C.ar      12 UNK        -0.0862 
     13 C13        31.5740   -0.9633   -2.7369 C.ar      12 UNK        -0.0733 
     14 C14        30.5441   -1.7162   -2.1587 C.ar      12 UNK        -0.0832 
     15 C15        31.9848    0.3987   -2.1767 C.3       12 UNK         0.0240 
     16 S16        30.6015    1.4103   -1.5414 S.3       12 UNK        -0.2522 
     17 C17        29.7027    1.8519   -3.0697 C.3       12 UNK        -0.0967 
     18 CA         28.4985    0.9144   -3.3610 C.3       5 UNK         0.0660 
     19 N          27.5831    0.7400   -2.2273 N.am      5 UNK        -0.4015 
     20 C          26.7742    1.6555   -1.6763 C.2       4 UNK         0.4946 
     21 O          26.6997    2.8316   -2.0386 O.2       4 UNK        -0.5353 
     22 CA         25.8701    1.1397   -0.5340 C.3       4 UNK         0.0277 
     23 CB         25.6928    2.2057    0.5625 C.3       4 UNK        -0.1981 
     24 N          24.5402    0.6678   -0.9568 N.am      4 UNK        -0.4209 
     25 C          24.2634   -0.1380   -1.9917 C.2       3 UNK         0.4942 
     26 O          25.1017   -0.5227   -2.8100 O.2       3 UNK        -0.5208 
     27 CA         22.8135   -0.6155   -2.1557 C.3       3 UNK         0.0250 
     28 CB         21.8718    0.5250   -2.5808 C.3       3 UNK        -0.1990 
     29 N          22.8558   -1.6409   -3.1895 N.am      3 UNK        -0.4232 
     30 C          22.0376   -2.6740   -3.3829 C.2       2 UNK         0.4993 
     31 O          21.0052   -2.8685   -2.7404 O.2       2 UNK        -0.5286 
     32 CA         22.4540   -3.6613   -4.4903 C.3       2 UNK         0.0209 
     33 CB         21.6653   -3.3809   -5.7800 C.3       2 UNK        -0.1931 
     34 N          23.8927   -3.6333   -4.7993 N.am      2 UNK        -0.4546 
     35 C          24.8584   -4.1404   -4.0139 C.2       1 UNK         0.5154 
     36 O          24.6252   -4.6868   -2.9347 O.2       1 UNK        -0.5181 
     37 C          27.7759    1.2466   -4.6869 C.2       5 UNK         0.5014 
     38 O          28.3657    1.8859   -5.5595 O.2       5 UNK        -0.5248 
     39 N          26.5288    0.7779   -4.8445 N.am      6 UNK        -0.4434 
     40 CA         25.7837    0.7957   -6.1023 C.3       6 UNK         0.0363 
     41 CB         24.2781    0.6695   -5.8152 C.3       6 UNK        -0.1936 
     42 C          26.2946   -0.3403   -7.0008 C.2       6 UNK         0.5081 
     43 O          25.8084   -1.4702   -6.9126 O.2       6 UNK        -0.5248 
     44 N          27.3096   -0.0283   -7.8053 N.am      7 UNK        -0.4718 
     45 CA         27.9996   -0.9287   -8.7204 C.3       7 UNK         0.0273 
     46 CB         29.0600   -1.7321   -7.9445 C.3       7 UNK        -0.1935 
     47 C          28.6343   -0.0842   -9.8326 C.2       7 UNK         0.5018 
     48 O          28.6757    1.1456   -9.7140 O.2       7 UNK        -0.5186 
     49 N          29.1269   -0.7519  -10.8859 N.am      8 UNK        -0.4240 
     50 CA         29.7911   -0.1470  -12.0468 C.3       8 UNK         0.0235 
     51 CB         30.2410   -1.2574  -13.0113 C.3       8 UNK        -0.2000 
     52 C          30.9799    0.7357  -11.6301 C.2       8 UNK         0.4941 
     53 O          31.9683    0.2130  -11.1106 O.2       8 UNK        -0.5273 
     54 N          30.8166    2.0584  -11.7894 N.am      9 UNK        -0.4262 
     55 CA         31.7269    3.1260  -11.3475 C.3       9 UNK         0.0264 
     56 CB         33.0055    3.1293  -12.2126 C.3       9 UNK        -0.1955 
     57 C          32.0428    3.0867   -9.8352 C.2       9 UNK         0.5031 
     58 O          33.1376    3.4869   -9.4343 O.2       9 UNK        -0.5390 
     59 N          31.1094    2.5517   -9.0290 N.am      10 UNK        -0.4204 
     60 CA         31.2486    2.2321   -7.6005 C.3       10 UNK         0.0237 
     61 CB         31.2882    3.5238   -6.7568 C.3       10 UNK        -0.1985 
     62 C          32.4277    1.2810   -7.2958 C.2       10 UNK         0.4970 
     63 O          33.0010    1.3520   -6.2075 O.2       10 UNK        -0.4914 
     64 N          32.7790    0.4329   -8.2744 N.am      11 UNK        -0.4285 
     65 CA         33.9649   -0.4368   -8.3028 C.3       11 UNK         0.1007 
     66 C          35.3173    0.3264   -8.4535 C.2       11 UNK         0.5703 
     67 N          35.3338    1.6123   -8.7882 N.am      11 UNK        -0.7361 
     68 O          36.3832   -0.2654   -8.2974 O.2       11 UNK        -0.4986 
     69 C69        33.9991   -1.4915   -7.1606 C.3       12 UNK        -0.0947 
     70 S70        32.4925   -2.5158   -7.0782 S.3       12 UNK        -0.2240 
     71 C71        32.7471   -3.3598   -5.4881 C.3       12 UNK         0.0194 
     72 H72        27.1141   -5.3309   -8.7614 H         1 UNK         0.0906 
     73 H73        25.3492   -5.3971   -8.7272 H         1 UNK         0.0906 
     74 H74        26.1770   -3.8511   -8.5386 H         1 UNK         0.0906 
     75 H75        26.2908   -3.1353   -6.4339 H         1 UNK         0.3140 
     76 H76        26.8112   -4.9886   -4.2026 H         1 UNK         0.1085 
     77 H77        28.0823   -2.8165   -4.5135 H         1 UNK         0.0836 
     78 H78        26.6131   -1.9446   -4.2550 H         1 UNK         0.0836 
     79 H79        28.9426   -4.7318   -2.5484 H         1 UNK         0.0731 
     80 H80        29.2556   -3.9287   -1.0308 H         1 UNK         0.0731 
     81 H81        30.5953   -4.4194   -4.2098 H         1 UNK         0.1312 
     82 H82        33.0893   -0.9331   -4.2573 H         1 UNK         0.1406 
     83 H83        30.0141   -1.3361   -1.2963 H         1 UNK         0.1631 
     84 H84        32.5183    0.9774   -2.9328 H         1 UNK         0.0717 
     85 H85        32.6910    0.2326   -1.3624 H         1 UNK         0.0717 
     86 H86        29.3619    2.8846   -2.9776 H         1 UNK         0.0934 
     87 H87        30.4073    1.8395   -3.9033 H         1 UNK         0.0934 
     88 H88        28.9078   -0.0785   -3.5425 H         1 UNK         0.0739 
     89 H89        27.4921   -0.2135   -1.9026 H         1 UNK         0.3093 
     90 H90        26.3754    0.2866   -0.0762 H         1 UNK         0.0818 
     91 H91        26.6592    2.5828    0.9004 H         1 UNK         0.0819 
     92 H92        25.1175    3.0606    0.2045 H         1 UNK         0.0819 
     93 H93        25.1832    1.7994    1.4363 H         1 UNK         0.0819 
     94 H94        23.7725    0.9448   -0.3624 H         1 UNK         0.3041 
     95 H95        22.4777   -1.0579   -1.2157 H         1 UNK         0.0784 
     96 H96        21.8210    1.3014   -1.8169 H         1 UNK         0.0793 
     97 H97        22.2010    0.9969   -3.5067 H         1 UNK         0.0793 
     98 H98        20.8564    0.1603   -2.7370 H         1 UNK         0.0793 
     99 H99        23.7271   -1.6206   -3.7070 H         1 UNK         0.3024 
    100 H100       22.1985   -4.6641   -4.1401 H         1 UNK         0.1171 
    101 H101       21.8866   -4.1207   -6.5496 H         1 UNK         0.0786 
    102 H102       20.5905   -3.4181   -5.5967 H         1 UNK         0.0786 
    103 H103       21.8930   -2.3942   -6.1858 H         1 UNK         0.0786 
    104 H104       24.1669   -3.2175   -5.6790 H         1 UNK         0.2977 
    105 H105       26.0966    0.2692   -4.0736 H         1 UNK         0.3127 
    106 H106       25.9494    1.7504   -6.6064 H         1 UNK         0.0770 
    107 H107       24.0323   -0.2766   -5.3353 H         1 UNK         0.0814 
    108 H108       23.7022    0.7214   -6.7398 H         1 UNK         0.0814 
    109 H109       23.9317    1.4761   -5.1696 H         1 UNK         0.0814 
    110 H110       27.6522    0.9259   -7.8287 H         1 UNK         0.2983 
    111 H111       27.2753   -1.6068   -9.1767 H         1 UNK         0.0947 
    112 H112       29.6063   -2.4112   -8.5998 H         1 UNK         0.0806 
    113 H113       28.6084   -2.3395   -7.1603 H         1 UNK         0.0806 
    114 H114       29.7915   -1.0747   -7.4725 H         1 UNK         0.0806 
    115 H115       29.0713   -1.7599  -10.8840 H         1 UNK         0.3000 
    116 H116       29.0539    0.4713  -12.5634 H         1 UNK         0.0850 
    117 H117       30.9464   -1.9423  -12.5385 H         1 UNK         0.0810 
    118 H118       30.7357   -0.8356  -13.8873 H         1 UNK         0.0810 
    119 H119       29.3935   -1.8419  -13.3697 H         1 UNK         0.0810 
    120 H120       29.9425    2.3783  -12.1849 H         1 UNK         0.3040 
    121 H121       31.2050    4.0682  -11.5210 H         1 UNK         0.0766 
    122 H122       33.6122    2.2398  -12.0386 H         1 UNK         0.0812 
    123 H123       32.7666    3.1700  -13.2752 H         1 UNK         0.0812 
    124 H124       33.6290    3.9961  -11.9898 H         1 UNK         0.0812 
    125 H125       30.2443    2.2220   -9.4532 H         1 UNK         0.3205 
    126 H126       30.3475    1.6828   -7.3261 H         1 UNK         0.0754 
    127 H127       31.2631    3.2969   -5.6907 H         1 UNK         0.0769 
    128 H128       30.4282    4.1591   -6.9682 H         1 UNK         0.0769 
    129 H129       32.1920    4.1038   -6.9459 H         1 UNK         0.0769 
    130 H130       32.2769    0.4677   -9.1558 H         1 UNK         0.2981 
    131 H131       33.8708   -0.9914   -9.2369 H         1 UNK         0.0541 
    132 H132       36.2214    2.0771   -8.8900 H         1 UNK         0.3459 
    133 H133       34.4762    2.1345   -8.9377 H         1 UNK         0.3459 
    134 H134       34.1665   -1.0062   -6.2003 H         1 UNK         0.0612 
    135 H135       34.8396   -2.1730   -7.3023 H         1 UNK         0.0612 
    136 H136       32.4798   -4.4095   -5.6183 H         1 UNK         0.0624 
    137 H137       33.8051   -3.3535   -5.2225 H         1 UNK         0.0624 
@<TRIPOS>BOND
     1    1    2 1    
     2    1   72 1    
     3    1   73 1    
     4    1   74 1    
     5    2    3 2    
     6    2    4 am   BACKBONE|DICT|INTERRES
     7    4    5 1    
     8    4   75 1    
     9    5    6 1    
    10    5   35 1    
    11    5   76 1    
    12    6    7 1    
    13    6   77 1    
    14    6   78 1    
    15    7    8 1    
    16    8    9 1    
    17    8   79 1    
    18    8   80 1    
    19    9   10 ar   
    20    9   14 ar   
    21   10   11 ar   
    22   10   81 1    
    23   11   12 ar   
    24   11   71 1    
    25   12   13 ar   
    26   12   82 1    
    27   13   14 ar   
    28   13   15 1    
    29   14   83 1    
    30   15   16 1    
    31   15   84 1    
    32   15   85 1    
    33   16   17 1    
    34   17   18 1    
    35   17   86 1    
    36   17   87 1    
    37   18   19 1    
    38   18   37 1    
    39   18   88 1    
    40   19   20 am   BACKBONE|DICT|INTERRES
    41   19   89 1    
    42   20   21 2    
    43   20   22 1    
    44   22   23 1    
    45   22   24 1    
    46   22   90 1    
    47   23   91 1    
    48   23   92 1    
    49   23   93 1    
    50   24   25 am   BACKBONE|DICT|INTERRES
    51   24   94 1    
    52   25   26 2    
    53   25   27 1    
    54   27   28 1    
    55   27   29 1    
    56   27   95 1    
    57   28   96 1    
    58   28   97 1    
    59   28   98 1    
    60   29   30 am   BACKBONE|DICT|INTERRES
    61   29   99 1    
    62   30   31 2    
    63   30   32 1    
    64   32   33 1    
    65   32   34 1    
    66   32  100 1    
    67   33  101 1    
    68   33  102 1    
    69   33  103 1    
    70   34   35 am   BACKBONE|DICT|INTERRES
    71   34  104 1    
    72   35   36 2    
    73   37   38 2    
    74   37   39 am   BACKBONE|DICT|INTERRES
    75   39   40 1    
    76   39  105 1    
    77   40   41 1    
    78   40   42 1    
    79   40  106 1    
    80   41  107 1    
    81   41  108 1    
    82   41  109 1    
    83   42   43 2    
    84   42   44 am   BACKBONE|DICT|INTERRES
    85   44   45 1    
    86   44  110 1    
    87   45   46 1    
    88   45   47 1    
    89   45  111 1    
    90   46  112 1    
    91   46  113 1    
    92   46  114 1    
    93   47   48 2    
    94   47   49 am   BACKBONE|DICT|INTERRES
    95   49   50 1    
    96   49  115 1    
    97   50   51 1    
    98   50   52 1    
    99   50  116 1    
   100   51  117 1    
   101   51  118 1    
   102   51  119 1    
   103   52   53 2    
   104   52   54 am   BACKBONE|DICT|INTERRES
   105   54   55 1    
   106   54  120 1    
   107   55   56 1    
   108   55   57 1    
   109   55  121 1    
   110   56  122 1    
   111   56  123 1    
   112   56  124 1    
   113   57   58 2    
   114   57   59 am   BACKBONE|DICT|INTERRES
   115   59   60 1    
   116   59  125 1    
   117   60   61 1    
   118   60   62 1    
   119   60  126 1    
   120   61  127 1    
   121   61  128 1    
   122   61  129 1    
   123   62   63 2    
   124   62   64 am   BACKBONE|DICT|INTERRES
   125   64   65 1    
   126   64  130 1    
   127   65   66 1    
   128   65   69 1    
   129   65  131 1    
   130   66   67 am   BACKBONE|DICT|INTERRES
   131   66   68 2    
   132   67  132 1    
   133   67  133 1    
   134   69   70 1    
   135   69  134 1    
   136   69  135 1    
   137   70   71 1    
   138   71  136 1    
   139   71  137 1    
@<TRIPOS>SUBSTRUCTURE
     1 UNK         1 GROUP             0       ****    0 ROOT    
