@<TRIPOS>MOLECULE
3R137
137   139    1
SMALL
USER_CHARGES


@<TRIPOS>ATOM
      1 CA         31.3183   -4.0275   -6.3741 C.3       0 UNK        -0.2020 
      2 C          30.3720   -4.6247   -5.3431 C.2       0 UNK         0.4855 
      3 O          30.7354   -5.5854   -4.6649 O.2       0 UNK        -0.5197 
      4 N          29.1706   -4.0541   -5.2180 N.am      1 UNK        -0.4892 
      5 CA         28.1051   -4.4877   -4.3112 C.3       1 UNK         0.0835 
      6 C6         27.8448   -3.4306   -3.2003 C.3       12 UNK        -0.0855 
      7 S7         28.5820   -3.9002   -1.5982 S.3       12 UNK        -0.2931 
      8 C8         30.2976   -3.2967   -1.7305 C.3       12 UNK         0.0378 
      9 C9         30.3783   -1.8175   -2.0777 C.ar      12 UNK        -0.0802 
     10 C10        30.8961   -1.4169   -3.3120 C.ar      12 UNK        -0.0944 
     11 C11        30.9608   -0.0640   -3.6509 C.ar      12 UNK        -0.0787 
     12 C12        30.5141    0.8950   -2.7374 C.ar      12 UNK        -0.0862 
     13 C13        29.9639    0.5049   -1.5113 C.ar      12 UNK        -0.0733 
     14 C14        29.9152   -0.8521   -1.1794 C.ar      12 UNK        -0.0832 
     15 C15        29.3763    1.5402   -0.5637 C.3       12 UNK         0.0240 
     16 S16        27.5750    1.7133   -0.8066 S.3       12 UNK        -0.2522 
     17 C17        27.5046    2.5088   -2.4462 C.3       12 UNK        -0.0967 
     18 CA         27.2248    1.4834   -3.5839 C.3       5 UNK         0.0660 
     19 N          25.8496    0.9719   -3.5677 N.am      5 UNK        -0.4015 
     20 C          24.7303    1.6189   -3.9174 C.2       4 UNK         0.4946 
     21 O          24.7123    2.7437   -4.4228 O.2       4 UNK        -0.5353 
     22 CA         23.4053    0.8734   -3.6583 C.3       4 UNK         0.0277 
     23 CB         22.2016    1.8337   -3.6185 C.3       4 UNK        -0.1981 
     24 N          23.1389   -0.1699   -4.6508 N.am      4 UNK        -0.4209 
     25 C          23.8044   -1.3256   -4.7677 C.2       3 UNK         0.4942 
     26 O          24.7440   -1.6501   -4.0353 O.2       3 UNK        -0.5208 
     27 CA         23.3371   -2.2537   -5.9029 C.3       3 UNK         0.0250 
     28 CB         23.6193   -1.6262   -7.2782 C.3       3 UNK        -0.1990 
     29 N          24.0216   -3.5424   -5.8285 N.am      3 UNK        -0.4232 
     30 C          23.5920   -4.6107   -5.1498 C.2       2 UNK         0.4993 
     31 O          22.4997   -4.6703   -4.5833 O.2       2 UNK        -0.5286 
     32 CA         24.5453   -5.8178   -5.0742 C.3       2 UNK         0.0209 
     33 CB         24.6023   -6.5780   -6.4150 C.3       2 UNK        -0.1931 
     34 N          25.8891   -5.4862   -4.5721 N.am      2 UNK        -0.4546 
     35 C          26.8363   -4.7297   -5.1466 C.2       1 UNK         0.5154 
     36 O          26.7201   -4.2060   -6.2583 O.2       1 UNK        -0.5181 
     37 C          27.6269    1.9988   -4.9809 C.2       5 UNK         0.5014 
     38 O          27.9100    1.1866   -5.8610 O.2       5 UNK        -0.5248 
     39 N          27.6252    3.3278   -5.1719 N.am      6 UNK        -0.4434 
     40 CA         27.9825    4.0240   -6.4134 C.3       6 UNK         0.0363 
     41 CB         27.9558    5.5404   -6.1656 C.3       6 UNK        -0.1936 
     42 C          27.1102    3.6606   -7.6302 C.2       6 UNK         0.5081 
     43 O          27.5349    3.8924   -8.7618 O.2       6 UNK        -0.5248 
     44 N          25.9349    3.0612   -7.3923 N.am      7 UNK        -0.4718 
     45 CA         25.0928    2.4396   -8.4176 C.3       7 UNK         0.0273 
     46 CB         23.7550    2.0362   -7.7805 C.3       7 UNK        -0.1935 
     47 C          25.7542    1.2337   -9.1221 C.2       7 UNK         0.5018 
     48 O          25.3456    0.9005  -10.2348 O.2       7 UNK        -0.5186 
     49 N          26.7643    0.6195   -8.4898 N.am      8 UNK        -0.4240 
     50 CA         27.6064   -0.4314   -9.0549 C.3       8 UNK         0.0235 
     51 CB         27.1031   -1.8122   -8.5976 C.3       8 UNK        -0.2000 
     52 C          29.0589   -0.1586   -8.6434 C.2       8 UNK         0.4941 
     53 O          29.6642   -0.9630   -7.9315 O.2       8 UNK        -0.5273 
     54 N          29.5984    0.9832   -9.0962 N.am      9 UNK        -0.4262 
     55 CA         30.9329    1.5209   -8.7859 C.3       9 UNK         0.0264 
     56 CB         30.9958    2.9895   -9.2467 C.3       9 UNK        -0.1955 
     57 C          32.1345    0.6994   -9.3142 C.2       9 UNK         0.5031 
     58 O          33.1601    1.2768   -9.6798 O.2       9 UNK        -0.5390 
     59 N          32.0192   -0.6332   -9.3131 N.am      10 UNK        -0.4204 
     60 CA         33.0758   -1.5858   -9.6671 C.3       10 UNK         0.0237 
     61 CB         32.4338   -2.9427  -10.0000 C.3       10 UNK        -0.1985 
     62 C          34.1517   -1.7330   -8.5727 C.2       10 UNK         0.4970 
     63 O          35.1909   -2.3407   -8.8313 O.2       10 UNK        -0.4914 
     64 N          33.8935   -1.1730   -7.3834 N.am      11 UNK        -0.4285 
     65 CA         34.8336   -1.0683   -6.2592 C.3       11 UNK         0.1007 
     66 C          36.0597   -0.1373   -6.5059 C.2       11 UNK         0.5703 
     67 N          36.0607    0.7096   -7.5300 N.am      11 UNK        -0.7361 
     68 O          37.0329   -0.1962   -5.7580 O.2       11 UNK        -0.4986 
     69 C69        34.0912   -0.7167   -4.9414 C.3       12 UNK        -0.0947 
     70 S70        33.1989    0.8806   -4.9986 S.3       12 UNK        -0.2240 
     71 C71        31.4565    0.3597   -5.0245 C.3       12 UNK         0.0194 
     72 H72        32.2581   -3.7400   -5.9032 H         1 UNK         0.0906 
     73 H73        31.5366   -4.7618   -7.1488 H         1 UNK         0.0906 
     74 H74        30.8945   -3.1431   -6.8493 H         1 UNK         0.0906 
     75 H75        28.8881   -3.3310   -5.8678 H         1 UNK         0.3140 
     76 H76        28.3640   -5.4491   -3.8614 H         1 UNK         0.1085 
     77 H77        28.1781   -2.4373   -3.5043 H         1 UNK         0.0836 
     78 H78        26.7783   -3.3057   -2.9988 H         1 UNK         0.0836 
     79 H79        30.8041   -3.4669   -0.7795 H         1 UNK         0.0731 
     80 H80        30.8299   -3.8992   -2.4669 H         1 UNK         0.0731 
     81 H81        31.2331   -2.1607   -4.0182 H         1 UNK         0.1312 
     82 H82        30.5571    1.9423   -3.0021 H         1 UNK         0.1406 
     83 H83        29.4862   -1.1615   -0.2358 H         1 UNK         0.1631 
     84 H84        29.8642    2.5072   -0.6949 H         1 UNK         0.0717 
     85 H85        29.5656    1.2428    0.4689 H         1 UNK         0.0717 
     86 H86        26.7316    3.2789   -2.4173 H         1 UNK         0.0934 
     87 H87        28.4461    3.0375   -2.6037 H         1 UNK         0.0934 
     88 H88        27.8528    0.6080   -3.4156 H         1 UNK         0.0739 
     89 H89        25.7466    0.0007   -3.2932 H         1 UNK         0.3093 
     90 H90        23.4821    0.4008   -2.6765 H         1 UNK         0.0818 
     91 H91        21.2857    1.3125   -3.3394 H         1 UNK         0.0819 
     92 H92        22.3585    2.6247   -2.8837 H         1 UNK         0.0819 
     93 H93        22.0343    2.3152   -4.5830 H         1 UNK         0.0819 
     94 H94        22.3897    0.0196   -5.3004 H         1 UNK         0.3041 
     95 H95        22.2608   -2.4107   -5.8041 H         1 UNK         0.0784 
     96 H96        23.5074   -2.3527   -8.0835 H         1 UNK         0.0793 
     97 H97        22.9228   -0.8147   -7.4871 H         1 UNK         0.0793 
     98 H98        24.6272   -1.2157   -7.3327 H         1 UNK         0.0793 
     99 H99        24.9731   -3.5799   -6.1871 H         1 UNK         0.3024 
    100 H100       24.1165   -6.5000   -4.3376 H         1 UNK         0.1171 
    101 H101       25.0008   -5.9636   -7.2227 H         1 UNK         0.0786 
    102 H102       23.6058   -6.9010   -6.7191 H         1 UNK         0.0786 
    103 H103       25.2221   -7.4712   -6.3373 H         1 UNK         0.0786 
    104 H104       26.0804   -5.8328   -3.6413 H         1 UNK         0.2977 
    105 H105       27.3041    3.9131   -4.4145 H         1 UNK         0.3127 
    106 H106       29.0060    3.7346   -6.6594 H         1 UNK         0.0770 
    107 H107       26.9593    5.8854   -5.8867 H         1 UNK         0.0814 
    108 H108       28.2507    6.0878   -7.0621 H         1 UNK         0.0814 
    109 H109       28.6471    5.8271   -5.3729 H         1 UNK         0.0814 
    110 H110       25.6465    2.9398   -6.4275 H         1 UNK         0.2983 
    111 H111       24.8945    3.1893   -9.1866 H         1 UNK         0.0947 
    112 H112       23.0984    1.5601   -8.5101 H         1 UNK         0.0806 
    113 H113       23.2264    2.9041   -7.3857 H         1 UNK         0.0806 
    114 H114       23.9032    1.3363   -6.9595 H         1 UNK         0.0806 
    115 H115       27.0577    0.9572   -7.5744 H         1 UNK         0.3000 
    116 H116       27.5751   -0.3975  -10.1460 H         1 UNK         0.0850 
    117 H117       27.0507   -1.8746   -7.5102 H         1 UNK         0.0810 
    118 H118       26.1134   -2.0260   -8.9996 H         1 UNK         0.0810 
    119 H119       27.7657   -2.6084   -8.9391 H         1 UNK         0.0810 
    120 H120       29.0168    1.5739   -9.6744 H         1 UNK         0.3040 
    121 H121       31.0277    1.5217   -7.6998 H         1 UNK         0.0766 
    122 H122       30.1953    3.5831   -8.8080 H         1 UNK         0.0812 
    123 H123       30.9193    3.0729  -10.3314 H         1 UNK         0.0812 
    124 H124       31.9341    3.4590   -8.9481 H         1 UNK         0.0812 
    125 H125       31.1562   -1.0139   -8.9259 H         1 UNK         0.3205 
    126 H126       33.5809   -1.2206  -10.5638 H         1 UNK         0.0754 
    127 H127       33.1901   -3.6797  -10.2736 H         1 UNK         0.0769 
    128 H128       31.7475   -2.8578  -10.8428 H         1 UNK         0.0769 
    129 H129       31.8754   -3.3446   -9.1555 H         1 UNK         0.0769 
    130 H130       33.0228   -0.6797   -7.2683 H         1 UNK         0.2981 
    131 H131       35.2571   -2.0651   -6.1226 H         1 UNK         0.0541 
    132 H132       36.8628    1.3010   -7.6786 H         1 UNK         0.3459 
    133 H133       35.2637    0.7762   -8.1446 H         1 UNK         0.3459 
    134 H134       34.7916   -0.6846   -4.1050 H         1 UNK         0.0612 
    135 H135       33.3923   -1.5163   -4.6985 H         1 UNK         0.0612 
    136 H136       30.8478    1.1929   -5.3778 H         1 UNK         0.0624 
    137 H137       31.3186   -0.4434   -5.7500 H         1 UNK         0.0624 
@<TRIPOS>BOND
     1    1    2 1    
     2    1   72 1    
     3    1   73 1    
     4    1   74 1    
     5    2    3 2    
     6    2    4 am   BACKBONE|DICT|INTERRES
     7    4    5 1    
     8    4   75 1    
     9    5    6 1    
    10    5   35 1    
    11    5   76 1    
    12    6    7 1    
    13    6   77 1    
    14    6   78 1    
    15    7    8 1    
    16    8    9 1    
    17    8   79 1    
    18    8   80 1    
    19    9   10 ar   
    20    9   14 ar   
    21   10   11 ar   
    22   10   81 1    
    23   11   12 ar   
    24   11   71 1    
    25   12   13 ar   
    26   12   82 1    
    27   13   14 ar   
    28   13   15 1    
    29   14   83 1    
    30   15   16 1    
    31   15   84 1    
    32   15   85 1    
    33   16   17 1    
    34   17   18 1    
    35   17   86 1    
    36   17   87 1    
    37   18   19 1    
    38   18   37 1    
    39   18   88 1    
    40   19   20 am   BACKBONE|DICT|INTERRES
    41   19   89 1    
    42   20   21 2    
    43   20   22 1    
    44   22   23 1    
    45   22   24 1    
    46   22   90 1    
    47   23   91 1    
    48   23   92 1    
    49   23   93 1    
    50   24   25 am   BACKBONE|DICT|INTERRES
    51   24   94 1    
    52   25   26 2    
    53   25   27 1    
    54   27   28 1    
    55   27   29 1    
    56   27   95 1    
    57   28   96 1    
    58   28   97 1    
    59   28   98 1    
    60   29   30 am   BACKBONE|DICT|INTERRES
    61   29   99 1    
    62   30   31 2    
    63   30   32 1    
    64   32   33 1    
    65   32   34 1    
    66   32  100 1    
    67   33  101 1    
    68   33  102 1    
    69   33  103 1    
    70   34   35 am   BACKBONE|DICT|INTERRES
    71   34  104 1    
    72   35   36 2    
    73   37   38 2    
    74   37   39 am   BACKBONE|DICT|INTERRES
    75   39   40 1    
    76   39  105 1    
    77   40   41 1    
    78   40   42 1    
    79   40  106 1    
    80   41  107 1    
    81   41  108 1    
    82   41  109 1    
    83   42   43 2    
    84   42   44 am   BACKBONE|DICT|INTERRES
    85   44   45 1    
    86   44  110 1    
    87   45   46 1    
    88   45   47 1    
    89   45  111 1    
    90   46  112 1    
    91   46  113 1    
    92   46  114 1    
    93   47   48 2    
    94   47   49 am   BACKBONE|DICT|INTERRES
    95   49   50 1    
    96   49  115 1    
    97   50   51 1    
    98   50   52 1    
    99   50  116 1    
   100   51  117 1    
   101   51  118 1    
   102   51  119 1    
   103   52   53 2    
   104   52   54 am   BACKBONE|DICT|INTERRES
   105   54   55 1    
   106   54  120 1    
   107   55   56 1    
   108   55   57 1    
   109   55  121 1    
   110   56  122 1    
   111   56  123 1    
   112   56  124 1    
   113   57   58 2    
   114   57   59 am   BACKBONE|DICT|INTERRES
   115   59   60 1    
   116   59  125 1    
   117   60   61 1    
   118   60   62 1    
   119   60  126 1    
   120   61  127 1    
   121   61  128 1    
   122   61  129 1    
   123   62   63 2    
   124   62   64 am   BACKBONE|DICT|INTERRES
   125   64   65 1    
   126   64  130 1    
   127   65   66 1    
   128   65   69 1    
   129   65  131 1    
   130   66   67 am   BACKBONE|DICT|INTERRES
   131   66   68 2    
   132   67  132 1    
   133   67  133 1    
   134   69   70 1    
   135   69  134 1    
   136   69  135 1    
   137   70   71 1    
   138   71  136 1    
   139   71  137 1    
@<TRIPOS>SUBSTRUCTURE
     1 UNK         1 GROUP             0       ****    0 ROOT    
