@<TRIPOS>MOLECULE
3R137
137   139    1
SMALL
USER_CHARGES


@<TRIPOS>ATOM
      1 CA         25.1936   -3.9324   -3.0577 C.3       0 UNK        -0.2020 
      2 C          26.2837   -2.8984   -2.8245 C.2       0 UNK         0.4855 
      3 O          26.4442   -2.0000   -3.6535 O.2       0 UNK        -0.5197 
      4 N          27.0044   -3.0215   -1.6986 N.am      1 UNK        -0.4892 
      5 CA         28.2208   -2.2909   -1.2943 C.3       1 UNK         0.0835 
      6 C6         29.5112   -2.9349   -1.8648 C.3       12 UNK        -0.0855 
      7 S7         29.7192   -4.6430   -1.2499 S.3       12 UNK        -0.2931 
      8 C8         31.3967   -5.0518   -1.8466 C.3       12 UNK         0.0378 
      9 C9         31.5518   -5.0112   -3.3654 C.ar      12 UNK        -0.0802 
     10 C10        32.7739   -4.6198   -3.9190 C.ar      12 UNK        -0.0944 
     11 C11        32.9396   -4.5433   -5.3053 C.ar      12 UNK        -0.0787 
     12 C12        31.8648   -4.8555   -6.1441 C.ar      12 UNK        -0.0862 
     13 C13        30.6399   -5.2628   -5.6068 C.ar      12 UNK        -0.0733 
     14 C14        30.5017   -5.3644   -4.2198 C.ar      12 UNK        -0.0832 
     15 C15        29.4662   -5.5909   -6.5238 C.3       12 UNK         0.0240 
     16 S16        27.9266   -4.7480   -6.0231 S.3       12 UNK        -0.2522 
     17 C17        28.4014   -2.9919   -6.1695 C.3       12 UNK        -0.0967 
     18 CA         27.4020   -2.1999   -7.0427 C.3       5 UNK         0.0660 
     19 N          26.0361   -2.2051   -6.5136 N.am      5 UNK        -0.4015 
     20 C          24.9488   -2.0092   -7.2722 C.2       4 UNK         0.4946 
     21 O          24.9844   -1.8700   -8.4957 O.2       4 UNK        -0.5353 
     22 CA         23.5831   -1.9491   -6.5650 C.3       4 UNK         0.0277 
     23 CB         22.9747   -3.3574   -6.4618 C.3       4 UNK        -0.1981 
     24 N          23.5787   -1.3220   -5.2388 N.am      4 UNK        -0.4209 
     25 C          24.0216   -0.0910   -4.9467 C.2       3 UNK         0.4942 
     26 O          24.6011    0.6374   -5.7510 O.2       3 UNK        -0.5208 
     27 CA         23.7690    0.4291   -3.5256 C.3       3 UNK         0.0250 
     28 CB         22.7304   -0.3788   -2.7174 C.3       3 UNK        -0.1990 
     29 N          25.0340    0.4722   -2.7982 N.am      3 UNK        -0.4232 
     30 C          25.3794    1.4238   -1.9201 C.2       2 UNK         0.4993 
     31 O          24.6683    2.3955   -1.6580 O.2       2 UNK        -0.5286 
     32 CA         26.7260    1.2533   -1.1926 C.3       2 UNK         0.0209 
     33 CB         26.7305    1.9203    0.1966 C.3       2 UNK        -0.1931 
     34 N          27.0557   -0.1645   -1.0380 N.am      2 UNK        -0.4546 
     35 C          28.1422   -0.7681   -1.5335 C.2       1 UNK         0.5154 
     36 O          29.0235   -0.1869   -2.1688 O.2       1 UNK        -0.5181 
     37 C          27.8733   -0.7533   -7.2504 C.2       5 UNK         0.5014 
     38 O          28.3277   -0.4267   -8.3463 O.2       5 UNK        -0.5248 
     39 N          27.7044    0.0912   -6.2187 N.am      6 UNK        -0.4434 
     40 CA         28.0682    1.5152   -6.2051 C.3       6 UNK         0.0363 
     41 CB         27.7159    2.1254   -4.8423 C.3       6 UNK        -0.1936 
     42 C          27.4434    2.3398   -7.3444 C.2       6 UNK         0.5081 
     43 O          28.0826    3.2641   -7.8469 O.2       6 UNK        -0.5248 
     44 N          26.2206    1.9717   -7.7472 N.am      7 UNK        -0.4718 
     45 CA         25.5052    2.5262   -8.8965 C.3       7 UNK         0.0273 
     46 CB         24.0616    1.9978   -8.8830 C.3       7 UNK        -0.1935 
     47 C          26.1716    2.2304  -10.2548 C.2       7 UNK         0.5018 
     48 O          25.9744    3.0083  -11.1895 O.2       7 UNK        -0.5186 
     49 N          26.9301    1.1288  -10.3537 N.am      8 UNK        -0.4240 
     50 CA         27.6756    0.7458  -11.5537 C.3       8 UNK         0.0235 
     51 CB         27.7225   -0.7869  -11.6764 C.3       8 UNK        -0.2000 
     52 C          29.0897    1.3440  -11.5376 C.2       8 UNK         0.4941 
     53 O          29.5036    1.9349  -12.5362 O.2       8 UNK        -0.5273 
     54 N          29.7979    1.1999  -10.4112 N.am      9 UNK        -0.4262 
     55 CA         31.1298    1.7527  -10.1711 C.3       9 UNK         0.0264 
     56 CB         32.2054    0.8705  -10.8309 C.3       9 UNK        -0.1955 
     57 C          31.3397    1.8253   -8.6584 C.2       9 UNK         0.5031 
     58 O          30.8806    0.9280   -7.9534 O.2       9 UNK        -0.5390 
     59 N          32.0480    2.8566   -8.1801 N.am      10 UNK        -0.4204 
     60 CA         32.2102    3.2402   -6.7660 C.3       10 UNK         0.0237 
     61 CB         32.8226    4.6534   -6.7126 C.3       10 UNK        -0.1985 
     62 C          32.9588    2.2458   -5.8409 C.2       10 UNK         0.4970 
     63 O          33.5917    2.6745   -4.8743 O.2       10 UNK        -0.4914 
     64 N          32.8607    0.9453   -6.1258 N.am      11 UNK        -0.4285 
     65 CA         33.2911   -0.1620   -5.2650 C.3       11 UNK         0.1007 
     66 C          32.2787   -0.4707   -4.1204 C.2       11 UNK         0.5703 
     67 N          31.0098   -0.0966   -4.2524 N.am      11 UNK        -0.7361 
     68 O          32.6584   -1.0167   -3.0878 O.2       11 UNK        -0.4986 
     69 C69        33.6119   -1.4125   -6.1252 C.3       12 UNK        -0.0947 
     70 S70        34.8479   -2.5023   -5.3477 S.3       12 UNK        -0.2240 
     71 C71        34.2859   -4.1451   -5.8979 C.3       12 UNK         0.0194 
     72 H72        25.3703   -4.4500   -4.0002 H         1 UNK         0.0906 
     73 H73        25.1635   -4.6799   -2.2653 H         1 UNK         0.0906 
     74 H74        24.2177   -3.4534   -3.1079 H         1 UNK         0.0906 
     75 H75        26.7678   -3.7804   -1.0743 H         1 UNK         0.3140 
     76 H76        28.2774   -2.3888   -0.2085 H         1 UNK         0.1085 
     77 H77        30.3958   -2.3634   -1.5753 H         1 UNK         0.0836 
     78 H78        29.4886   -2.9372   -2.9557 H         1 UNK         0.0836 
     79 H79        32.1028   -4.3644   -1.3777 H         1 UNK         0.0731 
     80 H80        31.6579   -6.0515   -1.4977 H         1 UNK         0.0731 
     81 H81        33.6005   -4.3629   -3.2705 H         1 UNK         0.1312 
     82 H82        31.9841   -4.7877   -7.2169 H         1 UNK         0.1406 
     83 H83        29.5562   -5.6884   -3.8076 H         1 UNK         0.1631 
     84 H84        29.2987   -6.6685   -6.5100 H         1 UNK         0.0717 
     85 H85        29.6914   -5.3244   -7.5576 H         1 UNK         0.0717 
     86 H86        28.4795   -2.5679   -5.1677 H         1 UNK         0.0934 
     87 H87        29.4033   -2.9238   -6.5981 H         1 UNK         0.0934 
     88 H88        27.3899   -2.6758   -8.0263 H         1 UNK         0.0739 
     89 H89        25.9455   -2.2714   -5.5045 H         1 UNK         0.3093 
     90 H90        22.9288   -1.3450   -7.1971 H         1 UNK         0.0818 
     91 H91        21.9548   -3.3247   -6.0783 H         1 UNK         0.0819 
     92 H92        22.9335   -3.8369   -7.4410 H         1 UNK         0.0819 
     93 H93        23.5609   -4.0044   -5.8085 H         1 UNK         0.0819 
     94 H94        23.1108   -1.8344   -4.5066 H         1 UNK         0.3041 
     95 H95        23.3829    1.4431   -3.6505 H         1 UNK         0.0784 
     96 H96        21.7876   -0.4705   -3.2588 H         1 UNK         0.0793 
     97 H97        23.0833   -1.3814   -2.4758 H         1 UNK         0.0793 
     98 H98        22.5038    0.1197   -1.7747 H         1 UNK         0.0793 
     99 H99        25.6862   -0.2811   -2.9998 H         1 UNK         0.3024 
    100 H100       27.4752    1.7566   -1.8063 H         1 UNK         0.1171 
    101 H101       26.5530    2.9939    0.1192 H         1 UNK         0.0786 
    102 H102       27.6917    1.7900    0.6942 H         1 UNK         0.0786 
    103 H103       25.9579    1.5058    0.8452 H         1 UNK         0.0786 
    104 H104       26.3649   -0.7348   -0.5691 H         1 UNK         0.2977 
    105 H105       27.2792   -0.2712   -5.3768 H         1 UNK         0.3127 
    106 H106       29.1490    1.5758   -6.3150 H         1 UNK         0.0770 
    107 H107       26.6442    2.0846   -4.6479 H         1 UNK         0.0814 
    108 H108       28.2326    1.6059   -4.0368 H         1 UNK         0.0814 
    109 H109       28.0157    3.1731   -4.7951 H         1 UNK         0.0814 
    110 H110       25.7349    1.2638   -7.2016 H         1 UNK         0.2983 
    111 H111       25.4768    3.6114   -8.7779 H         1 UNK         0.0947 
    112 H112       23.4853    2.4086   -9.7131 H         1 UNK         0.0806 
    113 H113       23.5469    2.2740   -7.9624 H         1 UNK         0.0806 
    114 H114       24.0318    0.9105   -8.9686 H         1 UNK         0.0806 
    115 H115       27.1020    0.5730   -9.5209 H         1 UNK         0.3000 
    116 H116       27.1604    1.1289  -12.4375 H         1 UNK         0.0850 
    117 H117       28.2324   -1.0867  -12.5929 H         1 UNK         0.0810 
    118 H118       26.7189   -1.2114  -11.7090 H         1 UNK         0.0810 
    119 H119       28.2527   -1.2507  -10.8444 H         1 UNK         0.0810 
    120 H120       29.3944    0.7066   -9.6149 H         1 UNK         0.3040 
    121 H121       31.1760    2.7630  -10.5833 H         1 UNK         0.0766 
    122 H122       33.2055    1.2595  -10.6361 H         1 UNK         0.0812 
    123 H123       32.0800    0.8298  -11.9129 H         1 UNK         0.0812 
    124 H124       32.1719   -0.1518  -10.4516 H         1 UNK         0.0812 
    125 H125       32.4394    3.5039   -8.8495 H         1 UNK         0.3205 
    126 H126       31.2025    3.3127   -6.3514 H         1 UNK         0.0754 
    127 H127       32.8553    5.0351   -5.6911 H         1 UNK         0.0769 
    128 H128       32.2357    5.3644   -7.2947 H         1 UNK         0.0769 
    129 H129       33.8429    4.6626   -7.0981 H         1 UNK         0.0769 
    130 H130       32.2399    0.6995   -6.8957 H         1 UNK         0.2981 
    131 H131       34.2166    0.1563   -4.7811 H         1 UNK         0.0541 
    132 H132       30.6961    0.3445   -5.1002 H         1 UNK         0.3459 
    133 H133       30.3613   -0.2382   -3.4826 H         1 UNK         0.3459 
    134 H134       34.0336   -1.1122   -7.0859 H         1 UNK         0.0612 
    135 H135       32.7009   -1.9646   -6.3626 H         1 UNK         0.0612 
    136 H136       35.0309   -4.8850   -5.6027 H         1 UNK         0.0624 
    137 H137       34.2544   -4.1587   -6.9885 H         1 UNK         0.0624 
@<TRIPOS>BOND
     1    1    2 1    
     2    1   72 1    
     3    1   73 1    
     4    1   74 1    
     5    2    3 2    
     6    2    4 am   BACKBONE|DICT|INTERRES
     7    4    5 1    
     8    4   75 1    
     9    5    6 1    
    10    5   35 1    
    11    5   76 1    
    12    6    7 1    
    13    6   77 1    
    14    6   78 1    
    15    7    8 1    
    16    8    9 1    
    17    8   79 1    
    18    8   80 1    
    19    9   10 ar   
    20    9   14 ar   
    21   10   11 ar   
    22   10   81 1    
    23   11   12 ar   
    24   11   71 1    
    25   12   13 ar   
    26   12   82 1    
    27   13   14 ar   
    28   13   15 1    
    29   14   83 1    
    30   15   16 1    
    31   15   84 1    
    32   15   85 1    
    33   16   17 1    
    34   17   18 1    
    35   17   86 1    
    36   17   87 1    
    37   18   19 1    
    38   18   37 1    
    39   18   88 1    
    40   19   20 am   BACKBONE|DICT|INTERRES
    41   19   89 1    
    42   20   21 2    
    43   20   22 1    
    44   22   23 1    
    45   22   24 1    
    46   22   90 1    
    47   23   91 1    
    48   23   92 1    
    49   23   93 1    
    50   24   25 am   BACKBONE|DICT|INTERRES
    51   24   94 1    
    52   25   26 2    
    53   25   27 1    
    54   27   28 1    
    55   27   29 1    
    56   27   95 1    
    57   28   96 1    
    58   28   97 1    
    59   28   98 1    
    60   29   30 am   BACKBONE|DICT|INTERRES
    61   29   99 1    
    62   30   31 2    
    63   30   32 1    
    64   32   33 1    
    65   32   34 1    
    66   32  100 1    
    67   33  101 1    
    68   33  102 1    
    69   33  103 1    
    70   34   35 am   BACKBONE|DICT|INTERRES
    71   34  104 1    
    72   35   36 2    
    73   37   38 2    
    74   37   39 am   BACKBONE|DICT|INTERRES
    75   39   40 1    
    76   39  105 1    
    77   40   41 1    
    78   40   42 1    
    79   40  106 1    
    80   41  107 1    
    81   41  108 1    
    82   41  109 1    
    83   42   43 2    
    84   42   44 am   BACKBONE|DICT|INTERRES
    85   44   45 1    
    86   44  110 1    
    87   45   46 1    
    88   45   47 1    
    89   45  111 1    
    90   46  112 1    
    91   46  113 1    
    92   46  114 1    
    93   47   48 2    
    94   47   49 am   BACKBONE|DICT|INTERRES
    95   49   50 1    
    96   49  115 1    
    97   50   51 1    
    98   50   52 1    
    99   50  116 1    
   100   51  117 1    
   101   51  118 1    
   102   51  119 1    
   103   52   53 2    
   104   52   54 am   BACKBONE|DICT|INTERRES
   105   54   55 1    
   106   54  120 1    
   107   55   56 1    
   108   55   57 1    
   109   55  121 1    
   110   56  122 1    
   111   56  123 1    
   112   56  124 1    
   113   57   58 2    
   114   57   59 am   BACKBONE|DICT|INTERRES
   115   59   60 1    
   116   59  125 1    
   117   60   61 1    
   118   60   62 1    
   119   60  126 1    
   120   61  127 1    
   121   61  128 1    
   122   61  129 1    
   123   62   63 2    
   124   62   64 am   BACKBONE|DICT|INTERRES
   125   64   65 1    
   126   64  130 1    
   127   65   66 1    
   128   65   69 1    
   129   65  131 1    
   130   66   67 am   BACKBONE|DICT|INTERRES
   131   66   68 2    
   132   67  132 1    
   133   67  133 1    
   134   69   70 1    
   135   69  134 1    
   136   69  135 1    
   137   70   71 1    
   138   71  136 1    
   139   71  137 1    
@<TRIPOS>SUBSTRUCTURE
     1 UNK         1 GROUP             0       ****    0 ROOT    
