@<TRIPOS>MOLECULE
3R137
137   139    1
SMALL
USER_CHARGES


@<TRIPOS>ATOM
      1 CA         27.2195    1.7970    2.6151 C.3       0 UNK        -0.2020 
      2 C          27.4213    1.1510    1.2524 C.2       0 UNK         0.4855 
      3 O          26.7629    1.5403    0.2873 O.2       0 UNK        -0.5197 
      4 N          28.3315    0.1726    1.1635 N.am      1 UNK        -0.4892 
      5 CA         28.6048   -0.6048   -0.0496 C.3       1 UNK         0.0835 
      6 C6         29.9731   -1.3219    0.0532 C.3       12 UNK        -0.0855 
      7 S7         30.6600   -1.7228   -1.5864 S.3       12 UNK        -0.2931 
      8 C8         30.8048   -3.5300   -1.4660 C.3       12 UNK         0.0378 
      9 C9         30.9651   -4.1452   -2.8446 C.ar      12 UNK        -0.0802 
     10 C10        32.2328   -4.4024   -3.3743 C.ar      12 UNK        -0.0944 
     11 C11        32.3643   -4.9663   -4.6480 C.ar      12 UNK        -0.0787 
     12 C12        31.2180   -5.2760   -5.3873 C.ar      12 UNK        -0.0862 
     13 C13        29.9468   -5.0083   -4.8705 C.ar      12 UNK        -0.0733 
     14 C14        29.8292   -4.4502   -3.5961 C.ar      12 UNK        -0.0832 
     15 C15        28.6997   -5.3142   -5.6868 C.3       12 UNK         0.0240 
     16 S16        28.5580   -4.2387   -7.1477 S.3       12 UNK        -0.2522 
     17 C17        28.5488   -2.5639   -6.4204 C.3       12 UNK        -0.0967 
     18 CA         27.6387   -1.6267   -7.2472 C.3       5 UNK         0.0660 
     19 N          26.2151   -1.9064   -7.0493 N.am      5 UNK        -0.4015 
     20 C          25.2453   -1.4869   -7.8723 C.2       4 UNK         0.4946 
     21 O          25.4461   -0.8238   -8.8904 O.2       4 UNK        -0.5353 
     22 CA         23.8050   -1.8410   -7.4697 C.3       4 UNK         0.0277 
     23 CB         23.4947   -3.3131   -7.7868 C.3       4 UNK        -0.1981 
     24 N          23.5291   -1.5675   -6.0563 N.am      4 UNK        -0.4209 
     25 C          23.5219   -0.3399   -5.5181 C.2       3 UNK         0.4942 
     26 O          23.7471    0.6893   -6.1533 O.2       3 UNK        -0.5208 
     27 CA         23.2461   -0.2400   -4.0090 C.3       3 UNK         0.0250 
     28 CB         21.7356   -0.3106   -3.7315 C.3       3 UNK        -0.1990 
     29 N          23.9471   -1.2289   -3.1799 N.am      3 UNK        -0.4232 
     30 C          25.2719   -1.4285   -3.1686 C.2       2 UNK         0.4993 
     31 O          26.0573   -0.9299   -3.9787 O.2       2 UNK        -0.5286 
     32 CA         25.8317   -2.3386   -2.0739 C.3       2 UNK         0.0209 
     33 CB         26.1066   -3.7457   -2.6266 C.3       2 UNK        -0.1931 
     34 N          27.0730   -1.7168   -1.6171 N.am      2 UNK        -0.4546 
     35 C          27.4385   -1.5777   -0.3385 C.2       1 UNK         0.5154 
     36 O          26.8857   -2.1629    0.5975 O.2       1 UNK        -0.5181 
     37 C          27.9650   -0.1419   -7.0108 C.2       5 UNK         0.5014 
     38 O          28.7659    0.4119   -7.7628 O.2       5 UNK        -0.5248 
     39 N          27.3135    0.4930   -6.0258 N.am      6 UNK        -0.4434 
     40 CA         27.4009    1.9313   -5.7672 C.3       6 UNK         0.0363 
     41 CB         26.6666    2.2742   -4.4615 C.3       6 UNK        -0.1936 
     42 C          26.8663    2.7748   -6.9372 C.2       6 UNK         0.5081 
     43 O          27.5252    3.7368   -7.3309 O.2       6 UNK        -0.5248 
     44 N          25.7137    2.3816   -7.5008 N.am      7 UNK        -0.4718 
     45 CA         25.1117    3.0074   -8.6832 C.3       7 UNK         0.0273 
     46 CB         23.6950    2.4533   -8.9013 C.3       7 UNK        -0.1935 
     47 C          25.9622    2.8362   -9.9534 C.2       7 UNK         0.5018 
     48 O          26.0758    3.7807  -10.7354 O.2       7 UNK        -0.5186 
     49 N          26.5647    1.6508  -10.1228 N.am      8 UNK        -0.4240 
     50 CA         27.5017    1.3417  -11.2077 C.3       8 UNK         0.0235 
     51 CB         27.6542   -0.1849  -11.3140 C.3       8 UNK        -0.2000 
     52 C          28.8862    1.9997  -11.0425 C.2       8 UNK         0.4941 
     53 O          29.6439    2.0329  -12.0130 O.2       8 UNK        -0.5273 
     54 N          29.2007    2.4744   -9.8269 N.am      9 UNK        -0.4262 
     55 CA         30.5004    2.9759   -9.3635 C.3       9 UNK         0.0264 
     56 CB         30.8919    4.2771  -10.0955 C.3       9 UNK        -0.1955 
     57 C          31.5986    1.8929   -9.4118 C.2       9 UNK         0.5031 
     58 O          32.7499    2.1902   -9.7392 O.2       9 UNK        -0.5390 
     59 N          31.2181    0.6508   -9.0900 N.am      10 UNK        -0.4204 
     60 CA         32.0977   -0.5133   -9.0484 C.3       10 UNK         0.0237 
     61 CB         31.2740   -1.7739   -9.3599 C.3       10 UNK        -0.1985 
     62 C          32.7614   -0.6280   -7.6698 C.2       10 UNK         0.4970 
     63 O          32.1191   -0.3382   -6.6579 O.2       10 UNK        -0.4914 
     64 N          34.0239   -1.0742   -7.6656 N.am      11 UNK        -0.4285 
     65 CA         34.8534   -1.3296   -6.4720 C.3       11 UNK         0.1007 
     66 C          35.2070   -0.0641   -5.6298 C.2       11 UNK         0.5703 
     67 N          35.0593    1.1451   -6.1590 N.am      11 UNK        -0.7361 
     68 O          35.6622   -0.1749   -4.4936 O.2       11 UNK        -0.4986 
     69 C69        34.3144   -2.5039   -5.6033 C.3       12 UNK        -0.0947 
     70 S70        34.1644   -4.0567   -6.5499 S.3       12 UNK        -0.2240 
     71 C71        33.7429   -5.2378   -5.2313 C.3       12 UNK         0.0194 
     72 H72        26.1948    1.6456    2.9533 H         1 UNK         0.0906 
     73 H73        27.4030    2.8693    2.5532 H         1 UNK         0.0906 
     74 H74        27.8899    1.3819    3.3676 H         1 UNK         0.0906 
     75 H75        28.8144   -0.1308    1.9975 H         1 UNK         0.3140 
     76 H76        28.6582    0.1120   -0.8731 H         1 UNK         0.1085 
     77 H77        29.9109   -2.2103    0.6851 H         1 UNK         0.0836 
     78 H78        30.7004   -0.6676    0.5372 H         1 UNK         0.0836 
     79 H79        31.6522   -3.7868   -0.8282 H         1 UNK         0.0731 
     80 H80        29.9162   -3.9419   -0.9842 H         1 UNK         0.0731 
     81 H81        33.1150   -4.1557   -2.7993 H         1 UNK         0.1312 
     82 H82        31.3157   -5.7036   -6.3760 H         1 UNK         0.1406 
     83 H83        28.8540   -4.2401   -3.1840 H         1 UNK         0.1631 
     84 H84        27.7976   -5.2166   -5.0819 H         1 UNK         0.0717 
     85 H85        28.7341   -6.3534   -6.0168 H         1 UNK         0.0717 
     86 H86        28.2257   -2.5977   -5.3784 H         1 UNK         0.0934 
     87 H87        29.5815   -2.2076   -6.4064 H         1 UNK         0.0934 
     88 H88        27.8559   -1.8077   -8.3024 H         1 UNK         0.0739 
     89 H89        25.9624   -2.4063   -6.2106 H         1 UNK         0.3093 
     90 H90        23.1358   -1.2173   -8.0667 H         1 UNK         0.0818 
     91 H91        23.6843   -3.5322   -8.8387 H         1 UNK         0.0819 
     92 H92        24.1067   -3.9964   -7.1968 H         1 UNK         0.0819 
     93 H93        22.4478   -3.5478   -7.5935 H         1 UNK         0.0819 
     94 H94        23.3349   -2.3574   -5.4582 H         1 UNK         0.3041 
     95 H95        23.5974    0.7429   -3.6884 H         1 UNK         0.0784 
     96 H96        21.1942    0.4261   -4.3271 H         1 UNK         0.0793 
     97 H97        21.3239   -1.2913   -3.9733 H         1 UNK         0.0793 
     98 H98        21.5135   -0.1016   -2.6848 H         1 UNK         0.0793 
     99 H99        23.3828   -1.7074   -2.4922 H         1 UNK         0.3024 
    100 H100       25.1157   -2.3997   -1.2505 H         1 UNK         0.1171 
    101 H101       25.1729   -4.2598   -2.8574 H         1 UNK         0.0786 
    102 H102       26.6882   -3.7072   -3.5469 H         1 UNK         0.0786 
    103 H103       26.6457   -4.3599   -1.9051 H         1 UNK         0.0786 
    104 H104       27.5520   -1.1852   -2.3338 H         1 UNK         0.2977 
    105 H105       26.7137   -0.0457   -5.4013 H         1 UNK         0.3127 
    106 H106       28.4569    2.1778   -5.6369 H         1 UNK         0.0770 
    107 H107       25.6063    2.0273   -4.5183 H         1 UNK         0.0814 
    108 H108       26.7429    3.3392   -4.2388 H         1 UNK         0.0814 
    109 H109       27.0897    1.7341   -3.6143 H         1 UNK         0.0814 
    110 H110       25.1981    1.6107   -7.0829 H         1 UNK         0.2983 
    111 H111       25.0308    4.0787   -8.4863 H         1 UNK         0.0947 
    112 H112       23.2257    2.9087   -9.7744 H         1 UNK         0.0806 
    113 H113       23.0537    2.6595   -8.0443 H         1 UNK         0.0806 
    114 H114       23.7035    1.3740   -9.0588 H         1 UNK         0.0806 
    115 H115       26.3524    0.8995   -9.4723 H         1 UNK         0.3000 
    116 H116       27.0751    1.7095  -12.1433 H         1 UNK         0.0850 
    117 H117       28.3025   -0.4574  -12.1479 H         1 UNK         0.0810 
    118 H118       26.6922   -0.6705  -11.4788 H         1 UNK         0.0810 
    119 H119       28.0924   -0.6076  -10.4096 H         1 UNK         0.0810 
    120 H120       28.5077    2.3599   -9.0976 H         1 UNK         0.3040 
    121 H121       30.3659    3.2200   -8.3085 H         1 UNK         0.0766 
    122 H122       31.1083    4.1013  -11.1495 H         1 UNK         0.0812 
    123 H123       31.7839    4.7206   -9.6516 H         1 UNK         0.0812 
    124 H124       30.0965    5.0199  -10.0345 H         1 UNK         0.0812 
    125 H125       30.2804    0.5238   -8.7076 H         1 UNK         0.3205 
    126 H126       32.8699   -0.4082   -9.8137 H         1 UNK         0.0754 
    127 H127       31.9004   -2.6669   -9.3403 H         1 UNK         0.0769 
    128 H128       30.8198   -1.7155  -10.3493 H         1 UNK         0.0769 
    129 H129       30.4741   -1.9223   -8.6349 H         1 UNK         0.0769 
    130 H130       34.4685   -1.2799   -8.5484 H         1 UNK         0.2981 
    131 H131       35.8174   -1.6517   -6.8671 H         1 UNK         0.0541 
    132 H132       35.3038    1.9556   -5.6124 H         1 UNK         0.3459 
    133 H133       34.6951    1.2545   -7.0920 H         1 UNK         0.3459 
    134 H134       33.3426   -2.2527   -5.1755 H         1 UNK         0.0612 
    135 H135       34.9808   -2.6969   -4.7610 H         1 UNK         0.0612 
    136 H136       33.7673   -6.2478   -5.6429 H         1 UNK         0.0624 
    137 H137       34.5098   -5.2039   -4.4560 H         1 UNK         0.0624 
@<TRIPOS>BOND
     1    1    2 1    
     2    1   72 1    
     3    1   73 1    
     4    1   74 1    
     5    2    3 2    
     6    2    4 am   BACKBONE|DICT|INTERRES
     7    4    5 1    
     8    4   75 1    
     9    5    6 1    
    10    5   35 1    
    11    5   76 1    
    12    6    7 1    
    13    6   77 1    
    14    6   78 1    
    15    7    8 1    
    16    8    9 1    
    17    8   79 1    
    18    8   80 1    
    19    9   10 ar   
    20    9   14 ar   
    21   10   11 ar   
    22   10   81 1    
    23   11   12 ar   
    24   11   71 1    
    25   12   13 ar   
    26   12   82 1    
    27   13   14 ar   
    28   13   15 1    
    29   14   83 1    
    30   15   16 1    
    31   15   84 1    
    32   15   85 1    
    33   16   17 1    
    34   17   18 1    
    35   17   86 1    
    36   17   87 1    
    37   18   19 1    
    38   18   37 1    
    39   18   88 1    
    40   19   20 am   BACKBONE|DICT|INTERRES
    41   19   89 1    
    42   20   21 2    
    43   20   22 1    
    44   22   23 1    
    45   22   24 1    
    46   22   90 1    
    47   23   91 1    
    48   23   92 1    
    49   23   93 1    
    50   24   25 am   BACKBONE|DICT|INTERRES
    51   24   94 1    
    52   25   26 2    
    53   25   27 1    
    54   27   28 1    
    55   27   29 1    
    56   27   95 1    
    57   28   96 1    
    58   28   97 1    
    59   28   98 1    
    60   29   30 am   BACKBONE|DICT|INTERRES
    61   29   99 1    
    62   30   31 2    
    63   30   32 1    
    64   32   33 1    
    65   32   34 1    
    66   32  100 1    
    67   33  101 1    
    68   33  102 1    
    69   33  103 1    
    70   34   35 am   BACKBONE|DICT|INTERRES
    71   34  104 1    
    72   35   36 2    
    73   37   38 2    
    74   37   39 am   BACKBONE|DICT|INTERRES
    75   39   40 1    
    76   39  105 1    
    77   40   41 1    
    78   40   42 1    
    79   40  106 1    
    80   41  107 1    
    81   41  108 1    
    82   41  109 1    
    83   42   43 2    
    84   42   44 am   BACKBONE|DICT|INTERRES
    85   44   45 1    
    86   44  110 1    
    87   45   46 1    
    88   45   47 1    
    89   45  111 1    
    90   46  112 1    
    91   46  113 1    
    92   46  114 1    
    93   47   48 2    
    94   47   49 am   BACKBONE|DICT|INTERRES
    95   49   50 1    
    96   49  115 1    
    97   50   51 1    
    98   50   52 1    
    99   50  116 1    
   100   51  117 1    
   101   51  118 1    
   102   51  119 1    
   103   52   53 2    
   104   52   54 am   BACKBONE|DICT|INTERRES
   105   54   55 1    
   106   54  120 1    
   107   55   56 1    
   108   55   57 1    
   109   55  121 1    
   110   56  122 1    
   111   56  123 1    
   112   56  124 1    
   113   57   58 2    
   114   57   59 am   BACKBONE|DICT|INTERRES
   115   59   60 1    
   116   59  125 1    
   117   60   61 1    
   118   60   62 1    
   119   60  126 1    
   120   61  127 1    
   121   61  128 1    
   122   61  129 1    
   123   62   63 2    
   124   62   64 am   BACKBONE|DICT|INTERRES
   125   64   65 1    
   126   64  130 1    
   127   65   66 1    
   128   65   69 1    
   129   65  131 1    
   130   66   67 am   BACKBONE|DICT|INTERRES
   131   66   68 2    
   132   67  132 1    
   133   67  133 1    
   134   69   70 1    
   135   69  134 1    
   136   69  135 1    
   137   70   71 1    
   138   71  136 1    
   139   71  137 1    
@<TRIPOS>SUBSTRUCTURE
     1 UNK         1 GROUP             0       ****    0 ROOT    
