@<TRIPOS>MOLECULE
3R137
137   139    1
SMALL
USER_CHARGES


@<TRIPOS>ATOM
      1 CA         26.7630    0.8428    3.1258 C.3       0 UNK        -0.2020 
      2 C          26.6595   -0.1745    1.9990 C.2       0 UNK         0.4855 
      3 O          26.2352   -1.3042    2.2410 O.2       0 UNK        -0.5197 
      4 N          27.0460    0.2268    0.7791 N.am      1 UNK        -0.4892 
      5 CA         27.0349   -0.5654   -0.4602 C.3       1 UNK         0.0835 
      6 C6         28.0432   -1.7463   -0.4626 C.3       12 UNK        -0.0855 
      7 S7         29.7678   -1.1773   -0.3244 S.3       12 UNK        -0.2931 
      8 C8         30.6658   -2.6512   -0.9040 C.3       12 UNK         0.0378 
      9 C9         30.7153   -2.7484   -2.4241 C.ar      12 UNK        -0.0802 
     10 C10        31.5623   -1.9020   -3.1452 C.ar      12 UNK        -0.0944 
     11 C11        31.6813   -2.0290   -4.5315 C.ar      12 UNK        -0.0787 
     12 C12        30.9445   -3.0101   -5.2004 C.ar      12 UNK        -0.0862 
     13 C13        30.0916   -3.8632   -4.4937 C.ar      12 UNK        -0.0733 
     14 C14        29.9720   -3.7193   -3.1057 C.ar      12 UNK        -0.0832 
     15 C15        29.3579   -4.9875   -5.2142 C.3       12 UNK         0.0240 
     16 S16        27.8038   -4.4374   -5.9851 S.3       12 UNK        -0.2522 
     17 C17        28.3498   -3.9049   -7.6514 C.3       12 UNK        -0.0967 
     18 CA         27.7839   -2.5306   -8.0903 C.3       5 UNK         0.0660 
     19 N          26.3234   -2.4846   -7.9765 N.am      5 UNK        -0.4015 
     20 C          25.5382   -1.4903   -8.4101 C.2       4 UNK         0.4946 
     21 O          25.9532   -0.4995   -9.0069 O.2       4 UNK        -0.5353 
     22 CA         24.0384   -1.5921   -8.0868 C.3       4 UNK         0.0277 
     23 CB         23.3010   -2.3415   -9.2078 C.3       4 UNK        -0.1981 
     24 N          23.7341   -2.2176   -6.7949 N.am      4 UNK        -0.4209 
     25 C          24.2008   -1.8192   -5.6027 C.2       3 UNK         0.4942 
     26 O          25.0234   -0.9112   -5.4493 O.2       3 UNK        -0.5208 
     27 CA         23.7007   -2.6262   -4.3939 C.3       3 UNK         0.0250 
     28 CB         24.5424   -3.9008   -4.2201 C.3       3 UNK        -0.1990 
     29 N          23.7555   -1.8659   -3.1478 N.am      3 UNK        -0.4232 
     30 C          23.0294   -0.7876   -2.8360 C.2       2 UNK         0.4993 
     31 O          22.1538   -0.3200   -3.5655 O.2       2 UNK        -0.5286 
     32 CA         23.3111   -0.1147   -1.4755 C.3       2 UNK         0.0209 
     33 CB         22.4741   -0.7687   -0.3584 C.3       2 UNK        -0.1931 
     34 N          24.7316   -0.0234   -1.0876 N.am      2 UNK        -0.4546 
     35 C          25.6066   -1.0104   -0.8357 C.2       1 UNK         0.5154 
     36 O          25.3272   -2.2096   -0.8994 O.2       1 UNK        -0.5181 
     37 C          28.4819   -1.3637   -7.3622 C.2       5 UNK         0.5014 
     38 O          29.4352   -0.7960   -7.8989 O.2       5 UNK        -0.5248 
     39 N          27.9844   -1.0111   -6.1707 N.am      6 UNK        -0.4434 
     40 CA         28.4836    0.1081   -5.3792 C.3       6 UNK         0.0363 
     41 CB         28.1063   -0.0956   -3.9069 C.3       6 UNK        -0.1936 
     42 C          27.9475    1.4450   -5.9065 C.2       6 UNK         0.5081 
     43 O          28.7040    2.4133   -5.9606 O.2       6 UNK        -0.5248 
     44 N          26.6700    1.4702   -6.3161 N.am      7 UNK        -0.4718 
     45 CA         26.0011    2.6460   -6.8834 C.3       7 UNK         0.0273 
     46 CB         24.4986    2.3642   -7.0349 C.3       7 UNK        -0.1935 
     47 C          26.6104    3.1018   -8.2215 C.2       7 UNK         0.5018 
     48 O          26.8030    4.3018   -8.4196 O.2       7 UNK        -0.5186 
     49 N          26.9322    2.1405   -9.0990 N.am      8 UNK        -0.4240 
     50 CA         27.6308    2.3682  -10.3680 C.3       8 UNK         0.0235 
     51 CB         27.3582    1.1844  -11.3113 C.3       8 UNK        -0.2000 
     52 C          29.1483    2.5716  -10.2012 C.2       8 UNK         0.4941 
     53 O          29.7981    2.9759  -11.1662 O.2       8 UNK        -0.5273 
     54 N          29.6812    2.2773   -9.0048 N.am      9 UNK        -0.4262 
     55 CA         31.0940    2.3166   -8.6168 C.3       9 UNK         0.0264 
     56 CB         31.6264    3.7651   -8.6107 C.3       9 UNK        -0.1955 
     57 C          31.9544    1.3566   -9.4582 C.2       9 UNK         0.5031 
     58 O          32.9812    1.7602  -10.0094 O.2       9 UNK        -0.5390 
     59 N          31.5324    0.0840   -9.5169 N.am      10 UNK        -0.4204 
     60 CA         32.1981   -1.0052  -10.2464 C.3       10 UNK         0.0237 
     61 CB         31.3277   -2.2702  -10.1644 C.3       10 UNK        -0.1985 
     62 C          33.6303   -1.3069   -9.7627 C.2       10 UNK         0.4970 
     63 O          34.4149   -1.8858  -10.5148 O.2       10 UNK        -0.4914 
     64 N          33.9422   -0.8909   -8.5304 N.am      11 UNK        -0.4285 
     65 CA         35.2813   -0.8941   -7.9305 C.3       11 UNK         0.1007 
     66 C          36.2734    0.1205   -8.5739 C.2       11 UNK         0.5703 
     67 N          35.8273    1.0924   -9.3635 N.am      11 UNK        -0.7361 
     68 O          37.4779    0.0178   -8.3537 O.2       11 UNK        -0.4986 
     69 C69        35.2011   -0.6797   -6.3961 C.3       12 UNK        -0.0947 
     70 S70        34.2328   -1.9719   -5.5490 S.3       12 UNK        -0.2240 
     71 C71        32.6361   -1.1339   -5.3023 C.3       12 UNK         0.0194 
     72 H72        27.4218    0.4684    3.9089 H         1 UNK         0.0906 
     73 H73        27.1572    1.7985    2.7807 H         1 UNK         0.0906 
     74 H74        25.7806    1.0196    3.5630 H         1 UNK         0.0906 
     75 H75        27.3907    1.1712    0.6728 H         1 UNK         0.3140 
     76 H76        27.3442    0.1205   -1.2481 H         1 UNK         0.1085 
     77 H77        27.8323   -2.4445    0.3493 H         1 UNK         0.0836 
     78 H78        27.9511   -2.3177   -1.3883 H         1 UNK         0.0836 
     79 H79        31.6863   -2.6079   -0.5205 H         1 UNK         0.0731 
     80 H80        30.2196   -3.5467   -0.4683 H         1 UNK         0.0731 
     81 H81        32.1466   -1.1581   -2.6209 H         1 UNK         0.1312 
     82 H82        31.0600   -3.1227   -6.2688 H         1 UNK         0.1406 
     83 H83        29.3266   -4.3877   -2.5519 H         1 UNK         0.1631 
     84 H84        29.1215   -5.7839   -4.5069 H         1 UNK         0.0717 
     85 H85        30.0069   -5.4434   -5.9633 H         1 UNK         0.0717 
     86 H86        29.4383   -3.9099   -7.7186 H         1 UNK         0.0934 
     87 H87        28.0208   -4.6681   -8.3584 H         1 UNK         0.0934 
     88 H88        28.0153   -2.4066   -9.1505 H         1 UNK         0.0739 
     89 H89        25.8972   -3.2522   -7.4785 H         1 UNK         0.3093 
     90 H90        23.6443   -0.5761   -8.0481 H         1 UNK         0.0818 
     91 H91        22.2216   -2.3235   -9.0556 H         1 UNK         0.0819 
     92 H92        23.4954   -1.8811  -10.1778 H         1 UNK         0.0819 
     93 H93        23.6147   -3.3841   -9.2735 H         1 UNK         0.0819 
     94 H94        23.0784   -2.9858   -6.8177 H         1 UNK         0.3041 
     95 H95        22.6599   -2.9066   -4.5688 H         1 UNK         0.0784 
     96 H96        24.5311   -4.5138   -5.1222 H         1 UNK         0.0793 
     97 H97        25.5841   -3.6651   -3.9974 H         1 UNK         0.0793 
     98 H98        24.1613   -4.5187   -3.4067 H         1 UNK         0.0793 
     99 H99        24.4309   -2.1732   -2.4514 H         1 UNK         0.3024 
    100 H100       22.9681    0.9169   -1.5752 H         1 UNK         0.1171 
    101 H101       21.4118   -0.7491   -0.6057 H         1 UNK         0.0786 
    102 H102       22.5962   -0.2418    0.5880 H         1 UNK         0.0786 
    103 H103       22.7495   -1.8116   -0.1986 H         1 UNK         0.0786 
    104 H104       25.0804    0.9225   -1.0113 H         1 UNK         0.2977 
    105 H105       27.1605   -1.4848   -5.8229 H         1 UNK         0.3127 
    106 H106       29.5739    0.1284   -5.4468 H         1 UNK         0.0770 
    107 H107       27.0253   -0.1136   -3.7635 H         1 UNK         0.0814 
    108 H108       28.5113    0.7094   -3.2926 H         1 UNK         0.0814 
    109 H109       28.5137   -1.0313   -3.5246 H         1 UNK         0.0814 
    110 H110       26.1100    0.6305   -6.1997 H         1 UNK         0.2983 
    111 H111       26.1221    3.4648   -6.1707 H         1 UNK         0.0947 
    112 H112       23.9647    3.2642   -7.3426 H         1 UNK         0.0806 
    113 H113       24.0571    2.0277   -6.0964 H         1 UNK         0.0806 
    114 H114       24.3080    1.6021   -7.7894 H         1 UNK         0.0806 
    115 H115       26.6736    1.1756   -8.8937 H         1 UNK         0.3000 
    116 H116       27.2282    3.2724  -10.8295 H         1 UNK         0.0850 
    117 H117       27.8062    1.3523  -12.2916 H         1 UNK         0.0810 
    118 H118       26.2891    1.0360  -11.4645 H         1 UNK         0.0810 
    119 H119       27.7724    0.2547  -10.9184 H         1 UNK         0.0810 
    120 H120       29.0479    1.9609   -8.2825 H         1 UNK         0.3040 
    121 H121       31.1369    1.9479   -7.5906 H         1 UNK         0.0766 
    122 H122       32.6438    3.8043   -8.2196 H         1 UNK         0.0812 
    123 H123       31.0119    4.4089   -7.9814 H         1 UNK         0.0812 
    124 H124       31.6478    4.1954   -9.6124 H         1 UNK         0.0812 
    125 H125       30.6937   -0.1726   -8.9929 H         1 UNK         0.3205 
    126 H126       32.2681   -0.7015  -11.2927 H         1 UNK         0.0754 
    127 H127       31.7655   -3.0855  -10.7421 H         1 UNK         0.0769 
    128 H128       30.3287   -2.0914  -10.5626 H         1 UNK         0.0769 
    129 H129       31.2221   -2.6184   -9.1362 H         1 UNK         0.0769 
    130 H130       33.2247   -0.4273   -7.9978 H         1 UNK         0.2981 
    131 H131       35.7086   -1.8831   -8.1063 H         1 UNK         0.0541 
    132 H132       34.8376    1.2045   -9.5593 H         1 UNK         0.3459 
    133 H133       36.4896    1.7332   -9.7703 H         1 UNK         0.3459 
    134 H134       34.7861    0.3028   -6.1634 H         1 UNK         0.0612 
    135 H135       36.2011   -0.6956   -5.9586 H         1 UNK         0.0612 
    136 H136       32.7933   -0.1969   -4.7657 H         1 UNK         0.0624 
    137 H137       32.1975   -0.8733   -6.2663 H         1 UNK         0.0624 
@<TRIPOS>BOND
     1    1    2 1    
     2    1   72 1    
     3    1   73 1    
     4    1   74 1    
     5    2    3 2    
     6    2    4 am   BACKBONE|DICT|INTERRES
     7    4    5 1    
     8    4   75 1    
     9    5    6 1    
    10    5   35 1    
    11    5   76 1    
    12    6    7 1    
    13    6   77 1    
    14    6   78 1    
    15    7    8 1    
    16    8    9 1    
    17    8   79 1    
    18    8   80 1    
    19    9   10 ar   
    20    9   14 ar   
    21   10   11 ar   
    22   10   81 1    
    23   11   12 ar   
    24   11   71 1    
    25   12   13 ar   
    26   12   82 1    
    27   13   14 ar   
    28   13   15 1    
    29   14   83 1    
    30   15   16 1    
    31   15   84 1    
    32   15   85 1    
    33   16   17 1    
    34   17   18 1    
    35   17   86 1    
    36   17   87 1    
    37   18   19 1    
    38   18   37 1    
    39   18   88 1    
    40   19   20 am   BACKBONE|DICT|INTERRES
    41   19   89 1    
    42   20   21 2    
    43   20   22 1    
    44   22   23 1    
    45   22   24 1    
    46   22   90 1    
    47   23   91 1    
    48   23   92 1    
    49   23   93 1    
    50   24   25 am   BACKBONE|DICT|INTERRES
    51   24   94 1    
    52   25   26 2    
    53   25   27 1    
    54   27   28 1    
    55   27   29 1    
    56   27   95 1    
    57   28   96 1    
    58   28   97 1    
    59   28   98 1    
    60   29   30 am   BACKBONE|DICT|INTERRES
    61   29   99 1    
    62   30   31 2    
    63   30   32 1    
    64   32   33 1    
    65   32   34 1    
    66   32  100 1    
    67   33  101 1    
    68   33  102 1    
    69   33  103 1    
    70   34   35 am   BACKBONE|DICT|INTERRES
    71   34  104 1    
    72   35   36 2    
    73   37   38 2    
    74   37   39 am   BACKBONE|DICT|INTERRES
    75   39   40 1    
    76   39  105 1    
    77   40   41 1    
    78   40   42 1    
    79   40  106 1    
    80   41  107 1    
    81   41  108 1    
    82   41  109 1    
    83   42   43 2    
    84   42   44 am   BACKBONE|DICT|INTERRES
    85   44   45 1    
    86   44  110 1    
    87   45   46 1    
    88   45   47 1    
    89   45  111 1    
    90   46  112 1    
    91   46  113 1    
    92   46  114 1    
    93   47   48 2    
    94   47   49 am   BACKBONE|DICT|INTERRES
    95   49   50 1    
    96   49  115 1    
    97   50   51 1    
    98   50   52 1    
    99   50  116 1    
   100   51  117 1    
   101   51  118 1    
   102   51  119 1    
   103   52   53 2    
   104   52   54 am   BACKBONE|DICT|INTERRES
   105   54   55 1    
   106   54  120 1    
   107   55   56 1    
   108   55   57 1    
   109   55  121 1    
   110   56  122 1    
   111   56  123 1    
   112   56  124 1    
   113   57   58 2    
   114   57   59 am   BACKBONE|DICT|INTERRES
   115   59   60 1    
   116   59  125 1    
   117   60   61 1    
   118   60   62 1    
   119   60  126 1    
   120   61  127 1    
   121   61  128 1    
   122   61  129 1    
   123   62   63 2    
   124   62   64 am   BACKBONE|DICT|INTERRES
   125   64   65 1    
   126   64  130 1    
   127   65   66 1    
   128   65   69 1    
   129   65  131 1    
   130   66   67 am   BACKBONE|DICT|INTERRES
   131   66   68 2    
   132   67  132 1    
   133   67  133 1    
   134   69   70 1    
   135   69  134 1    
   136   69  135 1    
   137   70   71 1    
   138   71  136 1    
   139   71  137 1    
@<TRIPOS>SUBSTRUCTURE
     1 UNK         1 GROUP             0       ****    0 ROOT    
