@<TRIPOS>MOLECULE
3R137
137   139    1
SMALL
USER_CHARGES


@<TRIPOS>ATOM
      1 CA         27.1246   -4.0442    2.1132 C.3       0 UNK        -0.2020 
      2 C          27.6931   -3.2589    0.9413 C.2       0 UNK         0.4855 
      3 O          28.2361   -2.1717    1.1362 O.2       0 UNK        -0.5197 
      4 N          27.5566   -3.7865   -0.2813 N.am      1 UNK        -0.4892 
      5 CA         28.0760   -3.2224   -1.5361 C.3       1 UNK         0.0835 
      6 C6         28.2289   -4.3220   -2.6210 C.3       12 UNK        -0.0855 
      7 S7         29.5900   -5.4936   -2.2930 S.3       12 UNK        -0.2931 
      8 C8         31.1210   -4.5404   -2.6316 C.3       12 UNK         0.0378 
      9 C9         30.9748   -3.4382   -3.6783 C.ar      12 UNK        -0.0802 
     10 C10        30.6513   -3.7473   -5.0018 C.ar      12 UNK        -0.0944 
     11 C11        30.4722   -2.7322   -5.9470 C.ar      12 UNK        -0.0787 
     12 C12        30.6579   -1.3978   -5.5689 C.ar      12 UNK        -0.0862 
     13 C13        30.9952   -1.0712   -4.2471 C.ar      12 UNK        -0.0733 
     14 C14        31.1531   -2.1009   -3.3143 C.ar      12 UNK        -0.0832 
     15 C15        31.2150    0.3679   -3.7739 C.3       12 UNK         0.0240 
     16 S16        30.2751    1.6546   -4.6640 S.3       12 UNK        -0.2522 
     17 C17        28.5476    1.1399   -4.3858 C.3       12 UNK        -0.0967 
     18 CA         27.8242    0.8234   -5.7225 C.3       5 UNK         0.0660 
     19 N          27.0070   -0.3921   -5.6382 N.am      5 UNK        -0.4015 
     20 C          26.3671   -0.9815   -6.6598 C.2       4 UNK         0.4946 
     21 O          26.3686   -0.5528   -7.8128 O.2       4 UNK        -0.5353 
     22 CA         25.5440   -2.2340   -6.3320 C.3       4 UNK         0.0277 
     23 CB         26.4444   -3.4786   -6.2838 C.3       4 UNK        -0.1981 
     24 N          24.8392   -2.0741   -5.0593 N.am      4 UNK        -0.4209 
     25 C          23.6555   -1.4588   -4.9264 C.2       3 UNK         0.4942 
     26 O          22.9839   -1.0533   -5.8753 O.2       3 UNK        -0.5208 
     27 CA         23.1338   -1.2399   -3.4936 C.3       3 UNK         0.0250 
     28 CB         22.2967   -2.4450   -3.0358 C.3       3 UNK        -0.1990 
     29 N          24.1918   -0.9818   -2.5118 N.am      3 UNK        -0.4232 
     30 C          24.9980    0.0893   -2.5228 C.2       2 UNK         0.4993 
     31 O          24.9303    0.9904   -3.3592 O.2       2 UNK        -0.5286 
     32 CA         26.1056    0.1372   -1.4537 C.3       2 UNK         0.0209 
     33 CB         25.5614    0.7333   -0.1459 C.3       2 UNK        -0.1931 
     34 N          26.7684   -1.1444   -1.1636 N.am      2 UNK        -0.4546 
     35 C          27.2658   -2.0094   -2.0592 C.2       1 UNK         0.5154 
     36 O          27.1037   -1.8684   -3.2714 O.2       1 UNK        -0.5181 
     37 C          27.0535    2.0446   -6.2678 C.2       5 UNK         0.5014 
     38 O          27.6381    2.8744   -6.9644 O.2       5 UNK        -0.5248 
     39 N          25.7468    2.1135   -5.9779 N.am      6 UNK        -0.4434 
     40 CA         24.8138    3.0914   -6.5393 C.3       6 UNK         0.0363 
     41 CB         23.4679    2.9685   -5.8067 C.3       6 UNK        -0.1936 
     42 C          24.6052    2.9650   -8.0631 C.2       6 UNK         0.5081 
     43 O          24.2357    3.9577   -8.6915 O.2       6 UNK        -0.5248 
     44 N          24.8224    1.7694   -8.6299 N.am      7 UNK        -0.4718 
     45 CA         24.6755    1.4867  -10.0591 C.3       7 UNK         0.0273 
     46 CB         23.9809    0.1268  -10.2437 C.3       7 UNK        -0.1935 
     47 C          26.0308    1.5074  -10.7820 C.2       7 UNK         0.5018 
     48 O          26.1270    2.1047  -11.8551 O.2       7 UNK        -0.5186 
     49 N          27.0471    0.8651  -10.1937 N.am      8 UNK        -0.4240 
     50 CA         28.4083    0.7824  -10.7173 C.3       8 UNK         0.0235 
     51 CB         28.6126   -0.5781  -11.4083 C.3       8 UNK        -0.2000 
     52 C          29.3687    0.9703   -9.5414 C.2       8 UNK         0.4941 
     53 O          29.4870    0.0706   -8.7121 O.2       8 UNK        -0.5273 
     54 N          29.9971    2.1476   -9.4573 N.am      9 UNK        -0.4262 
     55 CA         30.8437    2.5368   -8.3304 C.3       9 UNK         0.0264 
     56 CB         31.0612    4.0583   -8.3649 C.3       9 UNK        -0.1955 
     57 C          32.1953    1.8026   -8.3056 C.2       9 UNK         0.5031 
     58 O          32.8104    1.6285   -9.3602 O.2       9 UNK        -0.5390 
     59 N          32.6507    1.4782   -7.0853 N.am      10 UNK        -0.4204 
     60 CA         33.9879    0.9948   -6.7141 C.3       10 UNK         0.0237 
     61 CB         35.0025    2.1544   -6.8080 C.3       10 UNK        -0.1985 
     62 C          34.4474   -0.2567   -7.4879 C.2       10 UNK         0.4970 
     63 O          35.4455   -0.2036   -8.2101 O.2       10 UNK        -0.4914 
     64 N          33.7150   -1.3643   -7.3169 N.am      11 UNK        -0.4285 
     65 CA         34.0047   -2.6545   -7.9712 C.3       11 UNK         0.1007 
     66 C          35.2567   -3.4025   -7.4258 C.2       11 UNK         0.5703 
     67 N          35.8157   -3.0233   -6.2823 N.am      11 UNK        -0.7361 
     68 O          35.7337   -4.3420   -8.0582 O.2       11 UNK        -0.4986 
     69 C69        32.7733   -3.5980   -7.9962 C.3       12 UNK        -0.0947 
     70 S70        31.2822   -2.7708   -8.6443 S.3       12 UNK        -0.2240 
     71 C71        30.0269   -3.0887   -7.3615 C.3       12 UNK         0.0194 
     72 H72        26.3605   -3.4578    2.6225 H         1 UNK         0.0906 
     73 H73        26.6753   -4.9848    1.7952 H         1 UNK         0.0906 
     74 H74        27.9137   -4.2711    2.8295 H         1 UNK         0.0906 
     75 H75        27.0885   -4.6769   -0.3766 H         1 UNK         0.3140 
     76 H76        29.0698   -2.8208   -1.3302 H         1 UNK         0.1085 
     77 H77        27.3016   -4.8904   -2.7101 H         1 UNK         0.0836 
     78 H78        28.3913   -3.9063   -3.6130 H         1 UNK         0.0836 
     79 H79        31.8987   -5.2337   -2.9547 H         1 UNK         0.0731 
     80 H80        31.4706   -4.1208   -1.6871 H         1 UNK         0.0731 
     81 H81        30.5032   -4.7810   -5.2833 H         1 UNK         0.1312 
     82 H82        30.5249   -0.6231   -6.3106 H         1 UNK         0.1406 
     83 H83        31.4135   -1.8576   -2.2929 H         1 UNK         0.1631 
     84 H84        30.9632    0.4523   -2.7153 H         1 UNK         0.0717 
     85 H85        32.2776    0.5986   -3.8511 H         1 UNK         0.0717 
     86 H86        28.5605    0.2649   -3.7366 H         1 UNK         0.0934 
     87 H87        28.0314    1.9127   -3.8127 H         1 UNK         0.0934 
     88 H88        28.5760    0.5903   -6.4725 H         1 UNK         0.0739 
     89 H89        26.9818   -0.8564   -4.7322 H         1 UNK         0.3093 
     90 H90        24.8133   -2.3784   -7.1311 H         1 UNK         0.0818 
     91 H91        26.8929   -3.6669   -7.2599 H         1 UNK         0.0819 
     92 H92        27.2601   -3.3636   -5.5705 H         1 UNK         0.0819 
     93 H93        25.8795   -4.3695   -6.0098 H         1 UNK         0.0819 
     94 H94        25.3635   -2.3061   -4.2234 H         1 UNK         0.3041 
     95 H95        22.4843   -0.3619   -3.5155 H         1 UNK         0.0784 
     96 H96        21.4853   -2.6449   -3.7373 H         1 UNK         0.0793 
     97 H97        22.8978   -3.3525   -2.9659 H         1 UNK         0.0793 
     98 H98        21.8422   -2.2659   -2.0611 H         1 UNK         0.0793 
     99 H99        24.3321   -1.6764   -1.7925 H         1 UNK         0.3024 
    100 H100       26.8764    0.8107   -1.8320 H         1 UNK         0.1171 
    101 H101       26.3606    0.9014    0.5764 H         1 UNK         0.0786 
    102 H102       25.0809    1.6966   -0.3241 H         1 UNK         0.0786 
    103 H103       24.8219    0.0799    0.3187 H         1 UNK         0.0786 
    104 H104       26.9995   -1.3275   -0.1923 H         1 UNK         0.2977 
    105 H105       25.3650    1.4506   -5.3100 H         1 UNK         0.3127 
    106 H106       25.2202    4.0866   -6.3473 H         1 UNK         0.0770 
    107 H107       23.0290    1.9781   -5.9366 H         1 UNK         0.0814 
    108 H108       22.7487    3.6977   -6.1823 H         1 UNK         0.0814 
    109 H109       23.5806    3.1463   -4.7370 H         1 UNK         0.0814 
    110 H110       25.1891    1.0124   -8.0615 H         1 UNK         0.2983 
    111 H111       24.0421    2.2448  -10.5253 H         1 UNK         0.0947 
    112 H112       23.8412   -0.0983  -11.3019 H         1 UNK         0.0806 
    113 H113       22.9953    0.1206   -9.7781 H         1 UNK         0.0806 
    114 H114       24.5587   -0.6905   -9.8109 H         1 UNK         0.0806 
    115 H115       26.8905    0.3960   -9.3011 H         1 UNK         0.3000 
    116 H116       28.5879    1.5744  -11.4477 H         1 UNK         0.0850 
    117 H117       29.6363   -0.6809  -11.7704 H         1 UNK         0.0810 
    118 H118       27.9489   -0.6903  -12.2656 H         1 UNK         0.0810 
    119 H119       28.4230   -1.4088  -10.7267 H         1 UNK         0.0810 
    120 H120       29.8694    2.8320  -10.1880 H         1 UNK         0.3040 
    121 H121       30.2956    2.2980   -7.4194 H         1 UNK         0.0766 
    122 H122       31.5766    4.3725   -9.2734 H         1 UNK         0.0812 
    123 H123       31.6650    4.3858   -7.5174 H         1 UNK         0.0812 
    124 H124       30.1131    4.5942   -8.3101 H         1 UNK         0.0812 
    125 H125       32.0315    1.6577   -6.3047 H         1 UNK         0.3205 
    126 H126       33.9314    0.6997   -5.6657 H         1 UNK         0.0754 
    127 H127       35.9907    1.8398   -6.4696 H         1 UNK         0.0769 
    128 H128       34.7012    2.9964   -6.1846 H         1 UNK         0.0769 
    129 H129       35.1082    2.5174   -7.8312 H         1 UNK         0.0769 
    130 H130       32.8954   -1.3418   -6.7284 H         1 UNK         0.2981 
    131 H131       34.2385   -2.4251   -9.0128 H         1 UNK         0.0541 
    132 H132       35.4315   -2.2575   -5.7538 H         1 UNK         0.3459 
    133 H133       36.6282   -3.5141   -5.9441 H         1 UNK         0.3459 
    134 H134       32.5828   -4.0016   -7.0021 H         1 UNK         0.0612 
    135 H135       32.9711   -4.4608   -8.6346 H         1 UNK         0.0612 
    136 H136       29.1357   -2.5087   -7.6056 H         1 UNK         0.0624 
    137 H137       29.7315   -4.1373   -7.4190 H         1 UNK         0.0624 
@<TRIPOS>BOND
     1    1    2 1    
     2    1   72 1    
     3    1   73 1    
     4    1   74 1    
     5    2    3 2    
     6    2    4 am   BACKBONE|DICT|INTERRES
     7    4    5 1    
     8    4   75 1    
     9    5    6 1    
    10    5   35 1    
    11    5   76 1    
    12    6    7 1    
    13    6   77 1    
    14    6   78 1    
    15    7    8 1    
    16    8    9 1    
    17    8   79 1    
    18    8   80 1    
    19    9   10 ar   
    20    9   14 ar   
    21   10   11 ar   
    22   10   81 1    
    23   11   12 ar   
    24   11   71 1    
    25   12   13 ar   
    26   12   82 1    
    27   13   14 ar   
    28   13   15 1    
    29   14   83 1    
    30   15   16 1    
    31   15   84 1    
    32   15   85 1    
    33   16   17 1    
    34   17   18 1    
    35   17   86 1    
    36   17   87 1    
    37   18   19 1    
    38   18   37 1    
    39   18   88 1    
    40   19   20 am   BACKBONE|DICT|INTERRES
    41   19   89 1    
    42   20   21 2    
    43   20   22 1    
    44   22   23 1    
    45   22   24 1    
    46   22   90 1    
    47   23   91 1    
    48   23   92 1    
    49   23   93 1    
    50   24   25 am   BACKBONE|DICT|INTERRES
    51   24   94 1    
    52   25   26 2    
    53   25   27 1    
    54   27   28 1    
    55   27   29 1    
    56   27   95 1    
    57   28   96 1    
    58   28   97 1    
    59   28   98 1    
    60   29   30 am   BACKBONE|DICT|INTERRES
    61   29   99 1    
    62   30   31 2    
    63   30   32 1    
    64   32   33 1    
    65   32   34 1    
    66   32  100 1    
    67   33  101 1    
    68   33  102 1    
    69   33  103 1    
    70   34   35 am   BACKBONE|DICT|INTERRES
    71   34  104 1    
    72   35   36 2    
    73   37   38 2    
    74   37   39 am   BACKBONE|DICT|INTERRES
    75   39   40 1    
    76   39  105 1    
    77   40   41 1    
    78   40   42 1    
    79   40  106 1    
    80   41  107 1    
    81   41  108 1    
    82   41  109 1    
    83   42   43 2    
    84   42   44 am   BACKBONE|DICT|INTERRES
    85   44   45 1    
    86   44  110 1    
    87   45   46 1    
    88   45   47 1    
    89   45  111 1    
    90   46  112 1    
    91   46  113 1    
    92   46  114 1    
    93   47   48 2    
    94   47   49 am   BACKBONE|DICT|INTERRES
    95   49   50 1    
    96   49  115 1    
    97   50   51 1    
    98   50   52 1    
    99   50  116 1    
   100   51  117 1    
   101   51  118 1    
   102   51  119 1    
   103   52   53 2    
   104   52   54 am   BACKBONE|DICT|INTERRES
   105   54   55 1    
   106   54  120 1    
   107   55   56 1    
   108   55   57 1    
   109   55  121 1    
   110   56  122 1    
   111   56  123 1    
   112   56  124 1    
   113   57   58 2    
   114   57   59 am   BACKBONE|DICT|INTERRES
   115   59   60 1    
   116   59  125 1    
   117   60   61 1    
   118   60   62 1    
   119   60  126 1    
   120   61  127 1    
   121   61  128 1    
   122   61  129 1    
   123   62   63 2    
   124   62   64 am   BACKBONE|DICT|INTERRES
   125   64   65 1    
   126   64  130 1    
   127   65   66 1    
   128   65   69 1    
   129   65  131 1    
   130   66   67 am   BACKBONE|DICT|INTERRES
   131   66   68 2    
   132   67  132 1    
   133   67  133 1    
   134   69   70 1    
   135   69  134 1    
   136   69  135 1    
   137   70   71 1    
   138   71  136 1    
   139   71  137 1    
@<TRIPOS>SUBSTRUCTURE
     1 UNK         1 GROUP             0       ****    0 ROOT    
