@<TRIPOS>MOLECULE
3R137
137   139    1
SMALL
USER_CHARGES


@<TRIPOS>ATOM
      1 CA         25.6267   -7.6320   -3.8546 C.3       0 UNK        -0.2020 
      2 C          26.0383   -6.4428   -2.9995 C.2       0 UNK         0.4855 
      3 O          25.5633   -6.3064   -1.8712 O.2       0 UNK        -0.5197 
      4 N          26.9254   -5.5884   -3.5237 N.am      1 UNK        -0.4892 
      5 CA         27.3933   -4.3601   -2.8711 C.3       1 UNK         0.0835 
      6 C6         28.6707   -3.8056   -3.5466 C.3       12 UNK        -0.0855 
      7 S7         30.0705   -4.9703   -3.4236 S.3       12 UNK        -0.2931 
      8 C8         30.9466   -4.3542   -1.9494 C.3       12 UNK         0.0378 
      9 C9         31.7279   -3.0846   -2.2521 C.ar      12 UNK        -0.0802 
     10 C10        32.9837   -3.1662   -2.8598 C.ar      12 UNK        -0.0944 
     11 C11        33.7030   -2.0078   -3.1719 C.ar      12 UNK        -0.0787 
     12 C12        33.1557   -0.7594   -2.8573 C.ar      12 UNK        -0.0862 
     13 C13        31.9032   -0.6644   -2.2414 C.ar      12 UNK        -0.0733 
     14 C14        31.2009   -1.8311   -1.9286 C.ar      12 UNK        -0.0832 
     15 C15        31.3159    0.6985   -1.9018 C.3       12 UNK         0.0240 
     16 S16        30.6275    1.5368   -3.3647 S.3       12 UNK        -0.2522 
     17 C17        29.0750    0.6210   -3.6551 C.3       12 UNK        -0.0967 
     18 CA         28.5589    0.7700   -5.1093 C.3       5 UNK         0.0660 
     19 N          27.5189   -0.2101   -5.4330 N.am      5 UNK        -0.4015 
     20 C          27.1872   -0.5619   -6.6841 C.2       4 UNK         0.4946 
     21 O          27.8113   -0.1955   -7.6800 O.2       4 UNK        -0.5353 
     22 CA         25.9444   -1.4467   -6.8793 C.3       4 UNK         0.0277 
     23 CB         26.3372   -2.9268   -6.9991 C.3       4 UNK        -0.1981 
     24 N          24.9437   -1.2738   -5.8230 N.am      4 UNK        -0.4209 
     25 C          24.1944   -0.1682   -5.6913 C.2       3 UNK         0.4942 
     26 O          24.2478    0.7812   -6.4700 O.2       3 UNK        -0.5208 
     27 CA         23.2716   -0.0644   -4.4649 C.3       3 UNK         0.0250 
     28 CB         21.8809   -0.6295   -4.7923 C.3       3 UNK        -0.1990 
     29 N          23.7942   -0.7209   -3.2655 N.am      3 UNK        -0.4232 
     30 C          24.9828   -0.4823   -2.6936 C.2       2 UNK         0.4993 
     31 O          25.7906    0.3493   -3.1128 O.2       2 UNK        -0.5286 
     32 CA         25.3629   -1.3616   -1.4877 C.3       2 UNK         0.0209 
     33 CB         24.1460   -1.9995   -0.7794 C.3       2 UNK        -0.1931 
     34 N          26.3418   -2.4060   -1.8264 N.am      2 UNK        -0.4546 
     35 C          26.2801   -3.2915   -2.8351 C.2       1 UNK         0.5154 
     36 O          25.4162   -3.2786   -3.7175 O.2       1 UNK        -0.5181 
     37 C          28.0435    2.1901   -5.4128 C.2       5 UNK         0.5014 
     38 O          28.7392    2.9548   -6.0813 O.2       5 UNK        -0.5248 
     39 N          26.8128    2.4973   -4.9712 N.am      6 UNK        -0.4434 
     40 CA         26.1368    3.7790   -5.2076 C.3       6 UNK         0.0363 
     41 CB         24.7946    3.8014   -4.4601 C.3       6 UNK        -0.1936 
     42 C          25.9339    4.1036   -6.7003 C.2       6 UNK         0.5081 
     43 O          26.1348    5.2490   -7.1042 O.2       6 UNK        -0.5248 
     44 N          25.5739    3.0876   -7.4958 N.am      7 UNK        -0.4718 
     45 CA         25.4328    3.1696   -8.9528 C.3       7 UNK         0.0273 
     46 CB         24.5438    2.0079   -9.4289 C.3       7 UNK        -0.1935 
     47 C          26.7730    3.1531   -9.7135 C.2       7 UNK         0.5018 
     48 O          26.7641    3.3798  -10.9241 O.2       7 UNK        -0.5186 
     49 N          27.8827    2.8612   -9.0161 N.am      8 UNK        -0.4240 
     50 CA         29.2439    2.6837   -9.5389 C.3       8 UNK         0.0235 
     51 CB         29.8052    4.0129  -10.0877 C.3       8 UNK        -0.2000 
     52 C          29.3656    1.5145  -10.5387 C.2       8 UNK         0.4941 
     53 O          30.1562    1.5873  -11.4818 O.2       8 UNK        -0.5273 
     54 N          28.5852    0.4512  -10.3054 N.am      9 UNK        -0.4262 
     55 CA         28.6881   -0.8319  -11.0002 C.3       9 UNK         0.0264 
     56 CB         27.3214   -1.5361  -10.9792 C.3       9 UNK        -0.1955 
     57 C          29.7693   -1.7098  -10.3492 C.2       9 UNK         0.5031 
     58 O          30.5058   -2.3953  -11.0603 O.2       9 UNK        -0.5390 
     59 N          29.8583   -1.6484   -9.0137 N.am      10 UNK        -0.4204 
     60 CA         30.9497   -2.2012   -8.2143 C.3       10 UNK         0.0237 
     61 CB         30.4215   -2.5112   -6.8001 C.3       10 UNK        -0.1985 
     62 C          32.1372   -1.2209   -8.1645 C.2       10 UNK         0.4970 
     63 O          32.0560   -0.1072   -8.6899 O.2       10 UNK        -0.4914 
     64 N          33.2214   -1.6636   -7.5205 N.am      11 UNK        -0.4285 
     65 CA         34.4283   -0.8798   -7.2169 C.3       11 UNK         0.1007 
     66 C          34.1809    0.3977   -6.3605 C.2       11 UNK         0.5703 
     67 N          35.1617    1.2883   -6.2855 N.am      11 UNK        -0.7361 
     68 O          33.1297    0.5910   -5.7574 O.2       11 UNK        -0.4986 
     69 C69        35.5565   -1.7788   -6.6304 C.3       12 UNK        -0.0947 
     70 S70        35.0075   -3.0209   -5.4056 S.3       12 UNK        -0.2240 
     71 C71        35.0756   -2.1107   -3.8277 C.3       12 UNK         0.0194 
     72 H72        24.5525   -7.6088   -4.0360 H         1 UNK         0.0906 
     73 H73        26.1332   -7.6358   -4.8196 H         1 UNK         0.0906 
     74 H74        25.8662   -8.5636   -3.3424 H         1 UNK         0.0906 
     75 H75        27.2820   -5.7494   -4.4543 H         1 UNK         0.3140 
     76 H76        27.6351   -4.6125   -1.8359 H         1 UNK         0.1085 
     77 H77        28.9577   -2.8486   -3.1140 H         1 UNK         0.0836 
     78 H78        28.4935   -3.6059   -4.6032 H         1 UNK         0.0836 
     79 H79        31.6326   -5.1276   -1.6002 H         1 UNK         0.0731 
     80 H80        30.2358   -4.1913   -1.1377 H         1 UNK         0.0731 
     81 H81        33.3969   -4.1354   -3.1046 H         1 UNK         0.1312 
     82 H82        33.6982    0.1443   -3.0996 H         1 UNK         0.1406 
     83 H83        30.2382   -1.7610   -1.4416 H         1 UNK         0.1631 
     84 H84        32.0977    1.3285   -1.4753 H         1 UNK         0.0717 
     85 H85        30.5439    0.6130   -1.1355 H         1 UNK         0.0717 
     86 H86        29.2608   -0.4327   -3.4503 H         1 UNK         0.0934 
     87 H87        28.3308    0.9467   -2.9267 H         1 UNK         0.0934 
     88 H88        29.4045    0.5869   -5.7766 H         1 UNK         0.0739 
     89 H89        26.9067   -0.4764   -4.6716 H         1 UNK         0.3093 
     90 H90        25.4878   -1.1488   -7.8258 H         1 UNK         0.0818 
     91 H91        27.0838   -3.0742   -7.7808 H         1 UNK         0.0819 
     92 H92        26.7552   -3.3124   -6.0713 H         1 UNK         0.0819 
     93 H93        25.4754   -3.5431   -7.2554 H         1 UNK         0.0819 
     94 H94        24.8802   -2.0058   -5.1190 H         1 UNK         0.3041 
     95 H95        23.1606    0.9947   -4.2278 H         1 UNK         0.0784 
     96 H96        21.4581   -0.1398   -5.6710 H         1 UNK         0.0793 
     97 H97        21.9186   -1.6994   -5.0017 H         1 UNK         0.0793 
     98 H98        21.1833   -0.4714   -3.9695 H         1 UNK         0.0793 
     99 H99        23.2254   -1.4565   -2.8720 H         1 UNK         0.3024 
    100 H100       25.8460   -0.6914   -0.7743 H         1 UNK         0.1171 
    101 H101       23.6599   -2.7596   -1.3924 H         1 UNK         0.0786 
    102 H102       24.4479   -2.4799    0.1514 H         1 UNK         0.0786 
    103 H103       23.3984   -1.2484   -0.5191 H         1 UNK         0.0786 
    104 H104       27.1159   -2.4805   -1.1812 H         1 UNK         0.2977 
    105 H105       26.3169    1.8115   -4.4095 H         1 UNK         0.3127 
    106 H106       26.7727    4.5601   -4.7857 H         1 UNK         0.0770 
    107 H107       24.0959    3.0704   -4.8661 H         1 UNK         0.0814 
    108 H108       24.3215    4.7808   -4.5431 H         1 UNK         0.0814 
    109 H109       24.9238    3.5920   -3.3981 H         1 UNK         0.0814 
    110 H110       25.3314    2.1957   -7.0687 H         1 UNK         0.2983 
    111 H111       24.9321    4.1081   -9.2007 H         1 UNK         0.0947 
    112 H112       25.0003    1.0402   -9.2169 H         1 UNK         0.0806 
    113 H113       24.3709    2.0588  -10.5047 H         1 UNK         0.0806 
    114 H114       23.5677    2.0306   -8.9438 H         1 UNK         0.0806 
    115 H115       27.7884    2.7226   -8.0166 H         1 UNK         0.3000 
    116 H116       29.8566    2.4003   -8.6812 H         1 UNK         0.0850 
    117 H117       30.8622    3.9159  -10.3386 H         1 UNK         0.0810 
    118 H118       29.7204    4.8120   -9.3513 H         1 UNK         0.0810 
    119 H119       29.2850    4.3309  -10.9916 H         1 UNK         0.0810 
    120 H120       28.0239    0.4572   -9.4580 H         1 UNK         0.3040 
    121 H121       28.9690   -0.6590  -12.0414 H         1 UNK         0.0766 
    122 H122       27.3687   -2.4927  -11.5011 H         1 UNK         0.0812 
    123 H123       26.5595   -0.9335  -11.4740 H         1 UNK         0.0812 
    124 H124       26.9813   -1.7349   -9.9627 H         1 UNK         0.0812 
    125 H125       29.2094   -1.0371   -8.5231 H         1 UNK         0.3205 
    126 H126       31.2927   -3.1318   -8.6713 H         1 UNK         0.0754 
    127 H127       31.1681   -3.0306   -6.1977 H         1 UNK         0.0769 
    128 H128       29.5422   -3.1538   -6.8388 H         1 UNK         0.0769 
    129 H129       30.1512   -1.6034   -6.2612 H         1 UNK         0.0769 
    130 H130       33.1936   -2.5751   -7.0881 H         1 UNK         0.2981 
    131 H131       34.7830   -0.5078   -8.1800 H         1 UNK         0.0541 
    132 H132       35.0203    2.1209   -5.7357 H         1 UNK         0.3459 
    133 H133       36.0320    1.1535   -6.7758 H         1 UNK         0.3459 
    134 H134       36.0043   -2.3422   -7.4503 H         1 UNK         0.0612 
    135 H135       36.3777   -1.1921   -6.2153 H         1 UNK         0.0612 
    136 H136       35.5070   -1.1209   -3.9825 H         1 UNK         0.0624 
    137 H137       35.7505   -2.6360   -3.1509 H         1 UNK         0.0624 
@<TRIPOS>BOND
     1    1    2 1    
     2    1   72 1    
     3    1   73 1    
     4    1   74 1    
     5    2    3 2    
     6    2    4 am   BACKBONE|DICT|INTERRES
     7    4    5 1    
     8    4   75 1    
     9    5    6 1    
    10    5   35 1    
    11    5   76 1    
    12    6    7 1    
    13    6   77 1    
    14    6   78 1    
    15    7    8 1    
    16    8    9 1    
    17    8   79 1    
    18    8   80 1    
    19    9   10 ar   
    20    9   14 ar   
    21   10   11 ar   
    22   10   81 1    
    23   11   12 ar   
    24   11   71 1    
    25   12   13 ar   
    26   12   82 1    
    27   13   14 ar   
    28   13   15 1    
    29   14   83 1    
    30   15   16 1    
    31   15   84 1    
    32   15   85 1    
    33   16   17 1    
    34   17   18 1    
    35   17   86 1    
    36   17   87 1    
    37   18   19 1    
    38   18   37 1    
    39   18   88 1    
    40   19   20 am   BACKBONE|DICT|INTERRES
    41   19   89 1    
    42   20   21 2    
    43   20   22 1    
    44   22   23 1    
    45   22   24 1    
    46   22   90 1    
    47   23   91 1    
    48   23   92 1    
    49   23   93 1    
    50   24   25 am   BACKBONE|DICT|INTERRES
    51   24   94 1    
    52   25   26 2    
    53   25   27 1    
    54   27   28 1    
    55   27   29 1    
    56   27   95 1    
    57   28   96 1    
    58   28   97 1    
    59   28   98 1    
    60   29   30 am   BACKBONE|DICT|INTERRES
    61   29   99 1    
    62   30   31 2    
    63   30   32 1    
    64   32   33 1    
    65   32   34 1    
    66   32  100 1    
    67   33  101 1    
    68   33  102 1    
    69   33  103 1    
    70   34   35 am   BACKBONE|DICT|INTERRES
    71   34  104 1    
    72   35   36 2    
    73   37   38 2    
    74   37   39 am   BACKBONE|DICT|INTERRES
    75   39   40 1    
    76   39  105 1    
    77   40   41 1    
    78   40   42 1    
    79   40  106 1    
    80   41  107 1    
    81   41  108 1    
    82   41  109 1    
    83   42   43 2    
    84   42   44 am   BACKBONE|DICT|INTERRES
    85   44   45 1    
    86   44  110 1    
    87   45   46 1    
    88   45   47 1    
    89   45  111 1    
    90   46  112 1    
    91   46  113 1    
    92   46  114 1    
    93   47   48 2    
    94   47   49 am   BACKBONE|DICT|INTERRES
    95   49   50 1    
    96   49  115 1    
    97   50   51 1    
    98   50   52 1    
    99   50  116 1    
   100   51  117 1    
   101   51  118 1    
   102   51  119 1    
   103   52   53 2    
   104   52   54 am   BACKBONE|DICT|INTERRES
   105   54   55 1    
   106   54  120 1    
   107   55   56 1    
   108   55   57 1    
   109   55  121 1    
   110   56  122 1    
   111   56  123 1    
   112   56  124 1    
   113   57   58 2    
   114   57   59 am   BACKBONE|DICT|INTERRES
   115   59   60 1    
   116   59  125 1    
   117   60   61 1    
   118   60   62 1    
   119   60  126 1    
   120   61  127 1    
   121   61  128 1    
   122   61  129 1    
   123   62   63 2    
   124   62   64 am   BACKBONE|DICT|INTERRES
   125   64   65 1    
   126   64  130 1    
   127   65   66 1    
   128   65   69 1    
   129   65  131 1    
   130   66   67 am   BACKBONE|DICT|INTERRES
   131   66   68 2    
   132   67  132 1    
   133   67  133 1    
   134   69   70 1    
   135   69  134 1    
   136   69  135 1    
   137   70   71 1    
   138   71  136 1    
   139   71  137 1    
@<TRIPOS>SUBSTRUCTURE
     1 UNK         1 GROUP             0       ****    0 ROOT    
