@<TRIPOS>MOLECULE
3R137
137   139    1
SMALL
USER_CHARGES


@<TRIPOS>ATOM
      1 CA         28.1652   -4.0447    3.4169 C.3       0 UNK        -0.2020 
      2 C          27.7501   -4.1733    1.9586 C.2       0 UNK         0.4855 
      3 O          26.7648   -4.8516    1.6655 O.2       0 UNK        -0.5197 
      4 N          28.4974   -3.5269    1.0527 N.am      1 UNK        -0.4892 
      5 CA         28.2706   -3.4833   -0.3999 C.3       1 UNK         0.0835 
      6 C6         28.3934   -4.8758   -1.0944 C.3       12 UNK        -0.0855 
      7 S7         29.9088   -5.8482   -0.7524 S.3       12 UNK        -0.2931 
      8 C8         31.2726   -4.6286   -0.7237 C.3       12 UNK         0.0378 
      9 C9         31.3722   -3.7305   -1.9566 C.ar      12 UNK        -0.0802 
     10 C10        31.8639   -2.4291   -1.8057 C.ar      12 UNK        -0.0944 
     11 C11        31.9451   -1.5611   -2.8986 C.ar      12 UNK        -0.0787 
     12 C12        31.5389   -2.0130   -4.1559 C.ar      12 UNK        -0.0862 
     13 C13        31.0364   -3.3064   -4.3260 C.ar      12 UNK        -0.0733 
     14 C14        30.9777   -4.1672   -3.2277 C.ar      12 UNK        -0.0832 
     15 C15        30.5266   -3.7659   -5.6865 C.3       12 UNK         0.0240 
     16 S16        28.7315   -3.4729   -5.8638 S.3       12 UNK        -0.2522 
     17 C17        28.6720   -1.6526   -5.8399 C.3       12 UNK        -0.0967 
     18 CA         27.7530   -1.0439   -6.9203 C.3       5 UNK         0.0660 
     19 N          26.3276   -1.2521   -6.6546 N.am      5 UNK        -0.4015 
     20 C          25.3615   -1.0016   -7.5539 C.2       4 UNK         0.4946 
     21 O          25.5831   -0.6184   -8.7025 O.2       4 UNK        -0.5353 
     22 CA         23.9005   -1.1407   -7.0893 C.3       4 UNK         0.0277 
     23 CB         23.4172   -2.5893   -7.2611 C.3       4 UNK        -0.1981 
     24 N          23.6916   -0.7162   -5.7040 N.am      4 UNK        -0.4209 
     25 C          23.9763    0.5011   -5.2187 C.2       3 UNK         0.4942 
     26 O          24.3456    1.4428   -5.9198 O.2       3 UNK        -0.5208 
     27 CA         23.8970    0.6898   -3.6919 C.3       3 UNK         0.0250 
     28 CB         22.6019    1.4242   -3.3112 C.3       3 UNK        -0.1990 
     29 N          23.9971   -0.5554   -2.9172 N.am      3 UNK        -0.4232 
     30 C          25.0371   -1.4026   -2.9347 C.2       2 UNK         0.4993 
     31 O          26.0368   -1.2490   -3.6415 O.2       2 UNK        -0.5286 
     32 CA         24.8788   -2.6794   -2.0951 C.3       2 UNK         0.0209 
     33 CB         24.1125   -3.7450   -2.8975 C.3       2 UNK        -0.1931 
     34 N          26.1674   -3.2400   -1.6868 N.am      2 UNK        -0.4546 
     35 C          26.9518   -2.7360   -0.7240 C.2       1 UNK         0.5154 
     36 O          26.6651   -1.7175   -0.0879 O.2       1 UNK        -0.5181 
     37 C          28.0927    0.4477   -7.0827 C.2       5 UNK         0.5014 
     38 O          28.9254    0.7750   -7.9276 O.2       5 UNK        -0.5248 
     39 N          27.4651    1.3182   -6.2794 N.am      6 UNK        -0.4434 
     40 CA         27.6448    2.7694   -6.3513 C.3       6 UNK         0.0363 
     41 CB         27.0679    3.4367   -5.0923 C.3       6 UNK        -0.1936 
     42 C          27.0225    3.3569   -7.6269 C.2       6 UNK         0.5081 
     43 O          27.6387    4.2154   -8.2571 O.2       6 UNK        -0.5248 
     44 N          25.8403    2.8512   -8.0071 N.am      7 UNK        -0.4718 
     45 CA         25.1461    3.1927   -9.2510 C.3       7 UNK         0.0273 
     46 CB         23.7382    2.5764   -9.2383 C.3       7 UNK        -0.1935 
     47 C          25.9231    2.7583  -10.5065 C.2       7 UNK         0.5018 
     48 O          26.0120    3.5328  -11.4597 O.2       7 UNK        -0.5186 
     49 N          26.4871    1.5423  -10.4775 N.am      8 UNK        -0.4240 
     50 CA         27.3221    0.9902  -11.5484 C.3       8 UNK         0.0235 
     51 CB         27.3908   -0.5376  -11.3872 C.3       8 UNK        -0.2000 
     52 C          28.7462    1.5752  -11.5964 C.2       8 UNK         0.4941 
     53 O          29.4070    1.4316  -12.6257 O.2       8 UNK        -0.5273 
     54 N          29.2023    2.1786  -10.4869 N.am      9 UNK        -0.4262 
     55 CA         30.5778    2.6125  -10.2036 C.3       9 UNK         0.0264 
     56 CB         31.0072    3.7658  -11.1350 C.3       9 UNK        -0.1955 
     57 C          31.5594    1.4216  -10.2061 C.2       9 UNK         0.5031 
     58 O          32.6368    1.4983  -10.7998 O.2       9 UNK        -0.5390 
     59 N          31.1408    0.3263   -9.5590 N.am      10 UNK        -0.4204 
     60 CA         31.8278   -0.9670   -9.5505 C.3       10 UNK         0.0237 
     61 CB         30.7759   -2.0818   -9.4240 C.3       10 UNK        -0.1985 
     62 C          32.8863   -1.1030   -8.4427 C.2       10 UNK         0.4970 
     63 O          33.6760   -2.0467   -8.4962 O.2       10 UNK        -0.4914 
     64 N          32.8788   -0.1991   -7.4534 N.am      11 UNK        -0.4285 
     65 CA         33.8478   -0.1720   -6.3473 C.3       11 UNK         0.1007 
     66 C          35.2921    0.1543   -6.8228 C.2       11 UNK         0.5703 
     67 N          36.3009   -0.4709   -6.2314 N.am      11 UNK        -0.7361 
     68 O          35.5036    0.9940   -7.6959 O.2       11 UNK        -0.4986 
     69 C69        33.3825    0.7905   -5.2212 C.3       12 UNK        -0.0947 
     70 S70        33.9650    0.2598   -3.5719 S.3       12 UNK        -0.2240 
     71 C71        32.4090   -0.1213   -2.7017 C.3       12 UNK         0.0194 
     72 H72        28.3767   -5.0289    3.8342 H         1 UNK         0.0906 
     73 H73        27.3606   -3.5940    3.9975 H         1 UNK         0.0906 
     74 H74        29.0560   -3.4282    3.5365 H         1 UNK         0.0906 
     75 H75        29.2629   -2.9542    1.3791 H         1 UNK         0.3140 
     76 H76        29.0482   -2.8376   -0.8072 H         1 UNK         0.1085 
     77 H77        28.3405   -4.7566   -2.1779 H         1 UNK         0.0836 
     78 H78        27.5472   -5.5093   -0.8221 H         1 UNK         0.0836 
     79 H79        31.1729   -4.0234    0.1781 H         1 UNK         0.0731 
     80 H80        32.2133   -5.1706   -0.6199 H         1 UNK         0.0731 
     81 H81        32.1679   -2.0834   -0.8268 H         1 UNK         0.1312 
     82 H82        31.5965   -1.3460   -5.0005 H         1 UNK         0.1406 
     83 H83        30.5959   -5.1696   -3.3637 H         1 UNK         0.1631 
     84 H84        30.7234   -4.8312   -5.8150 H         1 UNK         0.0717 
     85 H85        31.0672   -3.2604   -6.4880 H         1 UNK         0.0717 
     86 H86        28.3908   -1.3195   -4.8392 H         1 UNK         0.0934 
     87 H87        29.6848   -1.2891   -6.0046 H         1 UNK         0.0934 
     88 H88        27.9793   -1.5254   -7.8739 H         1 UNK         0.0739 
     89 H89        26.0810   -1.5158   -5.7063 H         1 UNK         0.3093 
     90 H90        23.2902   -0.4966   -7.7254 H         1 UNK         0.0818 
     91 H91        23.5454   -2.9221   -8.2922 H         1 UNK         0.0819 
     92 H92        23.9716   -3.2803   -6.6246 H         1 UNK         0.0819 
     93 H93        22.3581   -2.6863   -7.0215 H         1 UNK         0.0819 
     94 H94        23.3800   -1.4223   -5.0543 H         1 UNK         0.3041 
     95 H95        24.7428    1.3187   -3.4064 H         1 UNK         0.0784 
     96 H96        22.5148    2.3677   -3.8524 H         1 UNK         0.0793 
     97 H97        21.7168    0.8315   -3.5459 H         1 UNK         0.0793 
     98 H98        22.5769    1.6614   -2.2475 H         1 UNK         0.0793 
     99 H99        23.2076   -0.7730   -2.3254 H         1 UNK         0.3024 
    100 H100       24.3107   -2.4370   -1.1936 H         1 UNK         0.1171 
    101 H101       24.6379   -4.0162   -3.8146 H         1 UNK         0.0786 
    102 H102       23.9690   -4.6541   -2.3129 H         1 UNK         0.0786 
    103 H103       23.1213   -3.3895   -3.1822 H         1 UNK         0.0786 
    104 H104       26.4826   -4.0521   -2.1955 H         1 UNK         0.2977 
    105 H105       26.7708    0.9740   -5.6314 H         1 UNK         0.3127 
    106 H106       28.7173    2.9756   -6.3796 H         1 UNK         0.0770 
    107 H107       27.2471    4.5125   -5.1091 H         1 UNK         0.0814 
    108 H108       25.9911    3.2906   -5.0074 H         1 UNK         0.0814 
    109 H109       27.5327    3.0458   -4.1871 H         1 UNK         0.0814 
    110 H110       25.3764    2.1924   -7.3865 H         1 UNK         0.2983 
    111 H111       25.0434    4.2795   -9.2858 H         1 UNK         0.0947 
    112 H112       23.7742    1.4874   -9.2002 H         1 UNK         0.0806 
    113 H113       23.1828    2.8536  -10.1353 H         1 UNK         0.0806 
    114 H114       23.1620    2.9212   -8.3793 H         1 UNK         0.0806 
    115 H115       26.2977    0.9317   -9.6866 H         1 UNK         0.3000 
    116 H116       26.8461    1.2115  -12.5062 H         1 UNK         0.0850 
    117 H117       27.9890   -0.9915  -12.1784 H         1 UNK         0.0810 
    118 H118       26.3982   -0.9861  -11.4336 H         1 UNK         0.0810 
    119 H119       27.8397   -0.8198  -10.4341 H         1 UNK         0.0810 
    120 H120       28.5780    2.2043   -9.6906 H         1 UNK         0.3040 
    121 H121       30.5685    2.9997   -9.1835 H         1 UNK         0.0766 
    122 H122       31.9778    4.1644  -10.8375 H         1 UNK         0.0812 
    123 H123       30.2936    4.5889  -11.0994 H         1 UNK         0.0812 
    124 H124       31.0952    3.4416  -12.1722 H         1 UNK         0.0812 
    125 H125       30.2592    0.3886   -9.0486 H         1 UNK         0.3205 
    126 H126       32.3427   -1.0978  -10.5048 H         1 UNK         0.0754 
    127 H127       31.2420   -3.0677   -9.4555 H         1 UNK         0.0769 
    128 H128       30.0549   -2.0413  -10.2405 H         1 UNK         0.0769 
    129 H129       30.2270   -2.0120   -8.4859 H         1 UNK         0.0769 
    130 H130       32.2282    0.5692   -7.5068 H         1 UNK         0.2981 
    131 H131       33.8587   -1.1869   -5.9435 H         1 UNK         0.0541 
    132 H132       37.2444   -0.2615   -6.5175 H         1 UNK         0.3459 
    133 H133       36.1360   -1.1377   -5.4935 H         1 UNK         0.3459 
    134 H134       32.2942    0.8562   -5.1998 H         1 UNK         0.0612 
    135 H135       33.7239    1.8113   -5.4039 H         1 UNK         0.0612 
    136 H136       32.5675    0.0781   -1.6408 H         1 UNK         0.0624 
    137 H137       31.6216    0.5650   -3.0158 H         1 UNK         0.0624 
@<TRIPOS>BOND
     1    1    2 1    
     2    1   72 1    
     3    1   73 1    
     4    1   74 1    
     5    2    3 2    
     6    2    4 am   BACKBONE|DICT|INTERRES
     7    4    5 1    
     8    4   75 1    
     9    5    6 1    
    10    5   35 1    
    11    5   76 1    
    12    6    7 1    
    13    6   77 1    
    14    6   78 1    
    15    7    8 1    
    16    8    9 1    
    17    8   79 1    
    18    8   80 1    
    19    9   10 ar   
    20    9   14 ar   
    21   10   11 ar   
    22   10   81 1    
    23   11   12 ar   
    24   11   71 1    
    25   12   13 ar   
    26   12   82 1    
    27   13   14 ar   
    28   13   15 1    
    29   14   83 1    
    30   15   16 1    
    31   15   84 1    
    32   15   85 1    
    33   16   17 1    
    34   17   18 1    
    35   17   86 1    
    36   17   87 1    
    37   18   19 1    
    38   18   37 1    
    39   18   88 1    
    40   19   20 am   BACKBONE|DICT|INTERRES
    41   19   89 1    
    42   20   21 2    
    43   20   22 1    
    44   22   23 1    
    45   22   24 1    
    46   22   90 1    
    47   23   91 1    
    48   23   92 1    
    49   23   93 1    
    50   24   25 am   BACKBONE|DICT|INTERRES
    51   24   94 1    
    52   25   26 2    
    53   25   27 1    
    54   27   28 1    
    55   27   29 1    
    56   27   95 1    
    57   28   96 1    
    58   28   97 1    
    59   28   98 1    
    60   29   30 am   BACKBONE|DICT|INTERRES
    61   29   99 1    
    62   30   31 2    
    63   30   32 1    
    64   32   33 1    
    65   32   34 1    
    66   32  100 1    
    67   33  101 1    
    68   33  102 1    
    69   33  103 1    
    70   34   35 am   BACKBONE|DICT|INTERRES
    71   34  104 1    
    72   35   36 2    
    73   37   38 2    
    74   37   39 am   BACKBONE|DICT|INTERRES
    75   39   40 1    
    76   39  105 1    
    77   40   41 1    
    78   40   42 1    
    79   40  106 1    
    80   41  107 1    
    81   41  108 1    
    82   41  109 1    
    83   42   43 2    
    84   42   44 am   BACKBONE|DICT|INTERRES
    85   44   45 1    
    86   44  110 1    
    87   45   46 1    
    88   45   47 1    
    89   45  111 1    
    90   46  112 1    
    91   46  113 1    
    92   46  114 1    
    93   47   48 2    
    94   47   49 am   BACKBONE|DICT|INTERRES
    95   49   50 1    
    96   49  115 1    
    97   50   51 1    
    98   50   52 1    
    99   50  116 1    
   100   51  117 1    
   101   51  118 1    
   102   51  119 1    
   103   52   53 2    
   104   52   54 am   BACKBONE|DICT|INTERRES
   105   54   55 1    
   106   54  120 1    
   107   55   56 1    
   108   55   57 1    
   109   55  121 1    
   110   56  122 1    
   111   56  123 1    
   112   56  124 1    
   113   57   58 2    
   114   57   59 am   BACKBONE|DICT|INTERRES
   115   59   60 1    
   116   59  125 1    
   117   60   61 1    
   118   60   62 1    
   119   60  126 1    
   120   61  127 1    
   121   61  128 1    
   122   61  129 1    
   123   62   63 2    
   124   62   64 am   BACKBONE|DICT|INTERRES
   125   64   65 1    
   126   64  130 1    
   127   65   66 1    
   128   65   69 1    
   129   65  131 1    
   130   66   67 am   BACKBONE|DICT|INTERRES
   131   66   68 2    
   132   67  132 1    
   133   67  133 1    
   134   69   70 1    
   135   69  134 1    
   136   69  135 1    
   137   70   71 1    
   138   71  136 1    
   139   71  137 1    
@<TRIPOS>SUBSTRUCTURE
     1 UNK         1 GROUP             0       ****    0 ROOT    
