@<TRIPOS>MOLECULE
3R137
137   139    1
SMALL
USER_CHARGES


@<TRIPOS>ATOM
      1 CA         28.0367   -2.8072   -6.7050 C.3       0 UNK        -0.2020 
      2 C          27.8784   -3.7908   -5.5590 C.2       0 UNK         0.4855 
      3 O          28.1463   -4.9805   -5.7245 O.2       0 UNK        -0.5197 
      4 N          27.4249   -3.3031   -4.3988 N.am      1 UNK        -0.4892 
      5 CA         27.2184   -4.0909   -3.1771 C.3       1 UNK         0.0835 
      6 C6         27.4608   -3.2062   -1.9251 C.3       12 UNK        -0.0855 
      7 S7         28.1724   -4.1066   -0.5048 S.3       12 UNK        -0.2931 
      8 C8         29.8505   -4.5457   -1.0855 C.3       12 UNK         0.0378 
      9 C9         30.6306   -3.3721   -1.6682 C.ar      12 UNK        -0.0802 
     10 C10        31.2391   -3.4870   -2.9231 C.ar      12 UNK        -0.0944 
     11 C11        31.9774   -2.4251   -3.4551 C.ar      12 UNK        -0.0787 
     12 C12        32.0943   -1.2367   -2.7276 C.ar      12 UNK        -0.0862 
     13 C13        31.4650   -1.0990   -1.4889 C.ar      12 UNK        -0.0733 
     14 C14        30.7560   -2.1770   -0.9532 C.ar      12 UNK        -0.0832 
     15 C15        31.5417    0.2134   -0.7273 C.3       12 UNK         0.0240 
     16 S16        29.9502    1.0966   -0.7693 S.3       12 UNK        -0.2522 
     17 C17        29.8992    1.7620   -2.4721 C.3       12 UNK        -0.0967 
     18 CA         28.8348    1.0923   -3.3892 C.3       5 UNK         0.0660 
     19 N          27.5219    1.0363   -2.7371 N.am      5 UNK        -0.4015 
     20 C          26.5026    0.2349   -3.0664 C.2       4 UNK         0.4946 
     21 O          26.5557   -0.6188   -3.9610 O.2       4 UNK        -0.5353 
     22 CA         25.2027    0.4495   -2.2812 C.3       4 UNK         0.0277 
     23 CB         24.6171    1.8526   -2.5419 C.3       4 UNK        -0.1981 
     24 N          24.2270   -0.5650   -2.6700 N.am      4 UNK        -0.4209 
     25 C          23.2039   -0.9836   -1.9121 C.2       3 UNK         0.4942 
     26 O          22.9767   -0.5630   -0.7772 O.2       3 UNK        -0.5208 
     27 CA         22.2815   -2.0552   -2.5079 C.3       3 UNK         0.0250 
     28 CB         21.1827   -1.4147   -3.3769 C.3       3 UNK        -0.1990 
     29 N          23.0477   -3.0323   -3.2787 N.am      3 UNK        -0.4232 
     30 C          22.6680   -4.2851   -3.5566 C.2       2 UNK         0.4993 
     31 O          21.5811   -4.7645   -3.2319 O.2       2 UNK        -0.5286 
     32 CA         23.6765   -5.1532   -4.3313 C.3       2 UNK         0.0209 
     33 CB         23.2858   -5.2358   -5.8162 C.3       2 UNK        -0.1931 
     34 N          25.0520   -4.6537   -4.2265 N.am      2 UNK        -0.4546 
     35 C          25.8383   -4.7913   -3.1481 C.2       1 UNK         0.5154 
     36 O          25.4937   -5.4253   -2.1503 O.2       1 UNK        -0.5181 
     37 C          28.7118    1.8156   -4.7553 C.2       5 UNK         0.5014 
     38 O          29.2255    2.9238   -4.9145 O.2       5 UNK        -0.5248 
     39 N          27.9580    1.2132   -5.6853 N.am      6 UNK        -0.4434 
     40 CA         27.5317    1.7944   -6.9601 C.3       6 UNK         0.0363 
     41 CB         26.5759    0.8162   -7.6631 C.3       6 UNK        -0.1936 
     42 C          28.6911    2.1725   -7.8974 C.2       6 UNK         0.5081 
     43 O          29.4450    1.2970   -8.3293 O.2       6 UNK        -0.5248 
     44 N          28.7647    3.4590   -8.2644 N.am      7 UNK        -0.4718 
     45 CA         29.7356    4.0027   -9.2215 C.3       7 UNK         0.0273 
     46 CB         29.6026    5.5322   -9.2793 C.3       7 UNK        -0.1935 
     47 C          29.6091    3.3934  -10.6281 C.2       7 UNK         0.5018 
     48 O          30.6259    3.1781  -11.2867 O.2       7 UNK        -0.5186 
     49 N          28.3747    3.0574  -11.0310 N.am      8 UNK        -0.4240 
     50 CA         28.0539    2.3548  -12.2784 C.3       8 UNK         0.0235 
     51 CB         26.5274    2.3193  -12.4574 C.3       8 UNK        -0.2000 
     52 C          28.6365    0.9300  -12.3608 C.2       8 UNK         0.4941 
     53 O          28.8509    0.4345  -13.4673 O.2       8 UNK        -0.5273 
     54 N          28.9003    0.3097  -11.2022 N.am      9 UNK        -0.4262 
     55 CA         29.5557   -0.9929  -11.0719 C.3       9 UNK         0.0264 
     56 CB         28.8632   -1.7712   -9.9413 C.3       9 UNK        -0.1955 
     57 C          31.0662   -0.8601  -10.7930 C.2       9 UNK         0.5031 
     58 O          31.7141   -1.8781  -10.5469 O.2       9 UNK        -0.5390 
     59 N          31.5956    0.3748  -10.8096 N.am      10 UNK        -0.4204 
     60 CA         32.9663    0.7695  -10.4633 C.3       10 UNK         0.0237 
     61 CB         33.9985    0.1262  -11.4150 C.3       10 UNK        -0.1985 
     62 C          33.3153    0.5699   -8.9736 C.2       10 UNK         0.4970 
     63 O          34.4990    0.5075   -8.6371 O.2       10 UNK        -0.4914 
     64 N          32.2975    0.5123   -8.1038 N.am      11 UNK        -0.4285 
     65 CA         32.4473    0.4444   -6.6427 C.3       11 UNK         0.1007 
     66 C          32.6002    1.8355   -5.9611 C.2       11 UNK         0.5703 
     67 N          32.5395    2.9481   -6.6831 N.am      11 UNK        -0.7361 
     68 O          32.8113    1.9034   -4.7531 O.2       11 UNK        -0.4986 
     69 C69        31.3111   -0.3951   -6.0006 C.3       12 UNK        -0.0947 
     70 S70        31.5675   -2.1859   -6.2059 S.3       12 UNK        -0.2240 
     71 C71        32.6684   -2.5686   -4.8047 C.3       12 UNK         0.0194 
     72 H72        28.8939   -3.0883   -7.3154 H         1 UNK         0.0906 
     73 H73        27.1496   -2.8123   -7.3374 H         1 UNK         0.0906 
     74 H74        28.2028   -1.7935   -6.3418 H         1 UNK         0.0906 
     75 H75        27.1871   -2.3147   -4.3225 H         1 UNK         0.3140 
     76 H76        27.9549   -4.8958   -3.1803 H         1 UNK         0.1085 
     77 H77        26.5400   -2.7157   -1.6029 H         1 UNK         0.0836 
     78 H78        28.1421   -2.3871   -2.1611 H         1 UNK         0.0836 
     79 H79        29.7734   -5.3564   -1.8110 H         1 UNK         0.0731 
     80 H80        30.4126   -4.9511   -0.2433 H         1 UNK         0.0731 
     81 H81        31.1471   -4.4056   -3.4866 H         1 UNK         0.1312 
     82 H82        32.6626   -0.4109   -3.1345 H         1 UNK         0.1406 
     83 H83        30.2779   -2.0759    0.0119 H         1 UNK         0.1631 
     84 H84        32.3313    0.8555   -1.1211 H         1 UNK         0.0717 
     85 H85        31.8038    0.0098    0.3119 H         1 UNK         0.0717 
     86 H86        29.7072    2.8329   -2.3797 H         1 UNK         0.0934 
     87 H87        30.8882    1.6783   -2.9245 H         1 UNK         0.0934 
     88 H88        29.1600    0.0676   -3.5837 H         1 UNK         0.0739 
     89 H89        27.3882    1.7025   -1.9905 H         1 UNK         0.3093 
     90 H90        25.4349    0.3383   -1.2196 H         1 UNK         0.0818 
     91 H91        25.3024    2.6404   -2.2277 H         1 UNK         0.0819 
     92 H92        24.4033    2.0075   -3.6004 H         1 UNK         0.0819 
     93 H93        23.6888    2.0044   -1.9907 H         1 UNK         0.0819 
     94 H94        24.3747   -0.9363   -3.5984 H         1 UNK         0.3041 
     95 H95        21.8069   -2.5723   -1.6707 H         1 UNK         0.0784 
     96 H96        20.6252   -0.6662   -2.8121 H         1 UNK         0.0793 
     97 H97        21.5996   -0.9198   -4.2547 H         1 UNK         0.0793 
     98 H98        20.4640   -2.1582   -3.7220 H         1 UNK         0.0793 
     99 H99        23.9833   -2.7654   -3.5432 H         1 UNK         0.3024 
    100 H100       23.6352   -6.1590   -3.9061 H         1 UNK         0.1171 
    101 H101       23.3078   -4.2567   -6.2965 H         1 UNK         0.0786 
    102 H102       23.9563   -5.8961   -6.3667 H         1 UNK         0.0786 
    103 H103       22.2761   -5.6327   -5.9322 H         1 UNK         0.0786 
    104 H104       25.4241   -4.1499   -5.0188 H         1 UNK         0.2977 
    105 H105       27.5172    0.3397   -5.4177 H         1 UNK         0.3127 
    106 H106       26.9675    2.6988   -6.7234 H         1 UNK         0.0770 
    107 H107       27.0666   -0.1275   -7.9014 H         1 UNK         0.0814 
    108 H108       26.2055    1.2345   -8.6000 H         1 UNK         0.0814 
    109 H109       25.7068    0.5942   -7.0434 H         1 UNK         0.0814 
    110 H110       28.1157    4.1173   -7.8566 H         1 UNK         0.2983 
    111 H111       30.7338    3.7611   -8.8532 H         1 UNK         0.0947 
    112 H112       30.3296    5.9611   -9.9708 H         1 UNK         0.0806 
    113 H113       29.7833    5.9830   -8.3032 H         1 UNK         0.0806 
    114 H114       28.6120    5.8416   -9.6149 H         1 UNK         0.0806 
    115 H115       27.6020    3.2747  -10.4186 H         1 UNK         0.3000 
    116 H116       28.4842    2.9287  -13.1020 H         1 UNK         0.0850 
    117 H117       26.0378    1.7745  -11.6491 H         1 UNK         0.0810 
    118 H118       26.2555    1.8275  -13.3926 H         1 UNK         0.0810 
    119 H119       26.1070    3.3247  -12.4896 H         1 UNK         0.0810 
    120 H120       28.7290    0.8008  -10.3329 H         1 UNK         0.3040 
    121 H121       29.4438   -1.5630  -11.9964 H         1 UNK         0.0766 
    122 H122       29.0146   -1.2857   -8.9771 H         1 UNK         0.0812 
    123 H123       27.7901   -1.8569  -10.1127 H         1 UNK         0.0812 
    124 H124       29.2602   -2.7840   -9.8620 H         1 UNK         0.0812 
    125 H125       30.9845    1.1506  -11.0418 H         1 UNK         0.3205 
    126 H126       33.0082    1.8470  -10.6282 H         1 UNK         0.0754 
    127 H127       34.9885    0.5602  -11.2698 H         1 UNK         0.0769 
    128 H128       33.7281    0.2845  -12.4590 H         1 UNK         0.0769 
    129 H129       34.0902   -0.9477  -11.2503 H         1 UNK         0.0769 
    130 H130       31.3438    0.6106   -8.4361 H         1 UNK         0.2981 
    131 H131       33.3883   -0.0616   -6.4213 H         1 UNK         0.0541 
    132 H132       32.6464    3.8375   -6.2222 H         1 UNK         0.3459 
    133 H133       32.3957    2.9032   -7.6767 H         1 UNK         0.3459 
    134 H134       30.3505   -0.1482   -6.4485 H         1 UNK         0.0612 
    135 H135       31.1902   -0.1774   -4.9427 H         1 UNK         0.0612 
    136 H136       33.0323   -3.5905   -4.9200 H         1 UNK         0.0624 
    137 H137       33.5506   -1.9287   -4.8504 H         1 UNK         0.0624 
@<TRIPOS>BOND
     1    1    2 1    
     2    1   72 1    
     3    1   73 1    
     4    1   74 1    
     5    2    3 2    
     6    2    4 am   BACKBONE|DICT|INTERRES
     7    4    5 1    
     8    4   75 1    
     9    5    6 1    
    10    5   35 1    
    11    5   76 1    
    12    6    7 1    
    13    6   77 1    
    14    6   78 1    
    15    7    8 1    
    16    8    9 1    
    17    8   79 1    
    18    8   80 1    
    19    9   10 ar   
    20    9   14 ar   
    21   10   11 ar   
    22   10   81 1    
    23   11   12 ar   
    24   11   71 1    
    25   12   13 ar   
    26   12   82 1    
    27   13   14 ar   
    28   13   15 1    
    29   14   83 1    
    30   15   16 1    
    31   15   84 1    
    32   15   85 1    
    33   16   17 1    
    34   17   18 1    
    35   17   86 1    
    36   17   87 1    
    37   18   19 1    
    38   18   37 1    
    39   18   88 1    
    40   19   20 am   BACKBONE|DICT|INTERRES
    41   19   89 1    
    42   20   21 2    
    43   20   22 1    
    44   22   23 1    
    45   22   24 1    
    46   22   90 1    
    47   23   91 1    
    48   23   92 1    
    49   23   93 1    
    50   24   25 am   BACKBONE|DICT|INTERRES
    51   24   94 1    
    52   25   26 2    
    53   25   27 1    
    54   27   28 1    
    55   27   29 1    
    56   27   95 1    
    57   28   96 1    
    58   28   97 1    
    59   28   98 1    
    60   29   30 am   BACKBONE|DICT|INTERRES
    61   29   99 1    
    62   30   31 2    
    63   30   32 1    
    64   32   33 1    
    65   32   34 1    
    66   32  100 1    
    67   33  101 1    
    68   33  102 1    
    69   33  103 1    
    70   34   35 am   BACKBONE|DICT|INTERRES
    71   34  104 1    
    72   35   36 2    
    73   37   38 2    
    74   37   39 am   BACKBONE|DICT|INTERRES
    75   39   40 1    
    76   39  105 1    
    77   40   41 1    
    78   40   42 1    
    79   40  106 1    
    80   41  107 1    
    81   41  108 1    
    82   41  109 1    
    83   42   43 2    
    84   42   44 am   BACKBONE|DICT|INTERRES
    85   44   45 1    
    86   44  110 1    
    87   45   46 1    
    88   45   47 1    
    89   45  111 1    
    90   46  112 1    
    91   46  113 1    
    92   46  114 1    
    93   47   48 2    
    94   47   49 am   BACKBONE|DICT|INTERRES
    95   49   50 1    
    96   49  115 1    
    97   50   51 1    
    98   50   52 1    
    99   50  116 1    
   100   51  117 1    
   101   51  118 1    
   102   51  119 1    
   103   52   53 2    
   104   52   54 am   BACKBONE|DICT|INTERRES
   105   54   55 1    
   106   54  120 1    
   107   55   56 1    
   108   55   57 1    
   109   55  121 1    
   110   56  122 1    
   111   56  123 1    
   112   56  124 1    
   113   57   58 2    
   114   57   59 am   BACKBONE|DICT|INTERRES
   115   59   60 1    
   116   59  125 1    
   117   60   61 1    
   118   60   62 1    
   119   60  126 1    
   120   61  127 1    
   121   61  128 1    
   122   61  129 1    
   123   62   63 2    
   124   62   64 am   BACKBONE|DICT|INTERRES
   125   64   65 1    
   126   64  130 1    
   127   65   66 1    
   128   65   69 1    
   129   65  131 1    
   130   66   67 am   BACKBONE|DICT|INTERRES
   131   66   68 2    
   132   67  132 1    
   133   67  133 1    
   134   69   70 1    
   135   69  134 1    
   136   69  135 1    
   137   70   71 1    
   138   71  136 1    
   139   71  137 1    
@<TRIPOS>SUBSTRUCTURE
     1 UNK         1 GROUP             0       ****    0 ROOT    
