@<TRIPOS>MOLECULE
3R137
137   139    1
SMALL
USER_CHARGES


@<TRIPOS>ATOM
      1 CA         22.8840   -6.6847   -2.3486 C.3       0 UNK        -0.2020 
      2 C          23.7880   -5.9575   -1.3643 C.2       0 UNK         0.4855 
      3 O          23.4032   -5.7580   -0.2115 O.2       0 UNK        -0.5197 
      4 N          24.9900   -5.5670   -1.8061 N.am      1 UNK        -0.4892 
      5 CA         25.9481   -4.7818   -1.0232 C.3       1 UNK         0.0835 
      6 C6         27.3607   -4.8427   -1.6570 C.3       12 UNK        -0.0855 
      7 S7         28.6666   -4.2313   -0.5354 S.3       12 UNK        -0.2931 
      8 C8         30.1413   -5.0588   -1.2056 C.3       12 UNK         0.0378 
      9 C9         30.6064   -4.4169   -2.5043 C.ar      12 UNK        -0.0802 
     10 C10        31.5186   -3.3573   -2.4761 C.ar      12 UNK        -0.0944 
     11 C11        31.9774   -2.7835   -3.6656 C.ar      12 UNK        -0.0787 
     12 C12        31.5223   -3.2824   -4.8890 C.ar      12 UNK        -0.0862 
     13 C13        30.5810   -4.3156   -4.9294 C.ar      12 UNK        -0.0733 
     14 C14        30.1365   -4.8880   -3.7342 C.ar      12 UNK        -0.0832 
     15 C15        30.0367   -4.8094   -6.2622 C.3       12 UNK         0.0240 
     16 S16        28.4655   -3.9903   -6.6899 S.3       12 UNK        -0.2522 
     17 C17        29.0556   -2.3160   -7.1052 C.3       12 UNK        -0.0967 
     18 CA         27.9205   -1.3002   -7.3585 C.3       5 UNK         0.0660 
     19 N          27.0225   -1.2112   -6.2038 N.am      5 UNK        -0.4015 
     20 C          25.8974   -0.4898   -6.1188 C.2       4 UNK         0.4946 
     21 O          25.4206    0.1477   -7.0583 O.2       4 UNK        -0.5353 
     22 CA         25.2379   -0.4022   -4.7302 C.3       4 UNK         0.0277 
     23 CB         24.0760   -1.4023   -4.6292 C.3       4 UNK        -0.1981 
     24 N          26.1596   -0.5946   -3.5970 N.am      4 UNK        -0.4209 
     25 C          27.2580    0.1466   -3.3580 C.2       3 UNK         0.4942 
     26 O          27.6428    1.0317   -4.1226 O.2       3 UNK        -0.5208 
     27 CA         28.0908   -0.1657   -2.0950 C.3       3 UNK         0.0250 
     28 CB         28.8604    1.0669   -1.5748 C.3       3 UNK        -0.1990 
     29 N          27.3228   -0.7970   -1.0161 N.am      3 UNK        -0.4232 
     30 C          26.2436   -0.3103   -0.3803 C.2       2 UNK         0.4993 
     31 O          25.8035    0.8284   -0.5460 O.2       2 UNK        -0.5286 
     32 CA         25.5144   -1.2793    0.5784 C.3       2 UNK         0.0209 
     33 CB         24.0022   -0.9816    0.6732 C.3       2 UNK        -0.1931 
     34 N          25.7373   -2.7012    0.2639 N.am      2 UNK        -0.4546 
     35 C          25.4687   -3.3222   -0.8959 C.2       1 UNK         0.5154 
     36 O          24.9580   -2.7656   -1.8709 O.2       1 UNK        -0.5181 
     37 C          28.5106    0.0644   -7.7936 C.2       5 UNK         0.5014 
     38 O          28.9918    0.1718   -8.9237 O.2       5 UNK        -0.5248 
     39 N          28.4403    1.1003   -6.9393 N.am      6 UNK        -0.4434 
     40 CA         28.7424    2.4934   -7.2851 C.3       6 UNK         0.0363 
     41 CB         28.6213    3.3787   -6.0362 C.3       6 UNK        -0.1936 
     42 C          27.8622    3.0514   -8.4189 C.2       6 UNK         0.5081 
     43 O          28.3301    3.9144   -9.1599 O.2       6 UNK        -0.5248 
     44 N          26.6444    2.5131   -8.5951 N.am      7 UNK        -0.4718 
     45 CA         25.7622    2.8200   -9.7286 C.3       7 UNK         0.0273 
     46 CB         24.3756    2.2079   -9.4765 C.3       7 UNK        -0.1935 
     47 C          26.3207    2.3466  -11.0859 C.2       7 UNK         0.5018 
     48 O          25.9641    2.9201  -12.1152 O.2       7 UNK        -0.5186 
     49 N          27.2010    1.3362  -11.0604 N.am      8 UNK        -0.4240 
     50 CA         27.9616    0.8381  -12.2082 C.3       8 UNK         0.0235 
     51 CB         27.9475   -0.7013  -12.1704 C.3       8 UNK        -0.2000 
     52 C          29.4075    1.3757  -12.2151 C.2       8 UNK         0.4941 
     53 O          30.2113    0.9081  -13.0223 O.2       8 UNK        -0.5273 
     54 N          29.7250    2.3176  -11.3097 N.am      9 UNK        -0.4262 
     55 CA         31.0414    2.9159  -11.0503 C.3       9 UNK         0.0264 
     56 CB         31.5408    3.7125  -12.2747 C.3       9 UNK        -0.1955 
     57 C          32.0955    1.9207  -10.5203 C.2       9 UNK         0.5031 
     58 O          33.2900    2.2137  -10.5929 O.2       9 UNK        -0.5390 
     59 N          31.6525    0.7824   -9.9678 N.am      10 UNK        -0.4204 
     60 CA         32.5095   -0.2873   -9.4458 C.3       10 UNK         0.0237 
     61 CB         31.9299   -1.6428   -9.8878 C.3       10 UNK        -0.1985 
     62 C          32.7241   -0.2061   -7.9210 C.2       10 UNK         0.4970 
     63 O          33.3981   -1.0731   -7.3644 O.2       10 UNK        -0.4914 
     64 N          32.1767    0.8301   -7.2757 N.am      11 UNK        -0.4285 
     65 CA         32.3723    1.1625   -5.8560 C.3       11 UNK         0.1007 
     66 C          32.3612    2.6991   -5.6033 C.2       11 UNK         0.5703 
     67 N          32.6325    3.5289   -6.6058 N.am      11 UNK        -0.7361 
     68 O          32.1087    3.1573   -4.4927 O.2       11 UNK        -0.4986 
     69 C69        31.4213    0.3514   -4.9295 C.3       12 UNK        -0.0947 
     70 S70        32.1626   -0.0335   -3.3071 S.3       12 UNK        -0.2240 
     71 C71        32.9733   -1.6334   -3.6270 C.3       12 UNK         0.0194 
     72 H72        23.3553   -6.8057   -3.3238 H         1 UNK         0.0906 
     73 H73        22.6338   -7.6746   -1.9680 H         1 UNK         0.0906 
     74 H74        21.9572   -6.1284   -2.4871 H         1 UNK         0.0906 
     75 H75        25.2362   -5.7239   -2.7731 H         1 UNK         0.3140 
     76 H76        25.9955   -5.2227   -0.0245 H         1 UNK         0.1085 
     77 H77        27.5958   -5.8776   -1.9112 H         1 UNK         0.0836 
     78 H78        27.4005   -4.2841   -2.5950 H         1 UNK         0.0836 
     79 H79        29.9402   -6.1213   -1.3516 H         1 UNK         0.0731 
     80 H80        30.9391   -5.0042   -0.4633 H         1 UNK         0.0731 
     81 H81        31.8744   -2.9789   -1.5273 H         1 UNK         0.1312 
     82 H82        31.8843   -2.8482   -5.8114 H         1 UNK         0.1406 
     83 H83        29.4194   -5.6970   -3.7632 H         1 UNK         0.1631 
     84 H84        29.8711   -5.8868   -6.2156 H         1 UNK         0.0717 
     85 H85        30.7638   -4.6478   -7.0597 H         1 UNK         0.0717 
     86 H86        29.6803   -1.9590   -6.2908 H         1 UNK         0.0934 
     87 H87        29.7000   -2.4061   -7.9776 H         1 UNK         0.0934 
     88 H88        27.3232   -1.6590   -8.1991 H         1 UNK         0.0739 
     89 H89        27.3178   -1.7162   -5.3817 H         1 UNK         0.3093 
     90 H90        24.8274    0.6054   -4.6391 H         1 UNK         0.0818 
     91 H91        23.3727   -1.2722   -5.4530 H         1 UNK         0.0819 
     92 H92        24.4283   -2.4342   -4.6585 H         1 UNK         0.0819 
     93 H93        23.5161   -1.2663   -3.7037 H         1 UNK         0.0819 
     94 H94        25.8872   -1.3019   -2.9203 H         1 UNK         0.3041 
     95 H95        28.8326   -0.9032   -2.4070 H         1 UNK         0.0784 
     96 H96        29.4696    0.8164   -0.7066 H         1 UNK         0.0793 
     97 H97        29.5353    1.4591   -2.3369 H         1 UNK         0.0793 
     98 H98        28.1864    1.8762   -1.2929 H         1 UNK         0.0793 
     99 H99        27.5996   -1.7431   -0.7895 H         1 UNK         0.3024 
    100 H100       25.9495   -1.1060    1.5642 H         1 UNK         0.1171 
    101 H101       23.5046   -1.6686    1.3577 H         1 UNK         0.0786 
    102 H102       23.8225    0.0283    1.0440 H         1 UNK         0.0786 
    103 H103       23.5125   -1.0627   -0.2979 H         1 UNK         0.0786 
    104 H104       26.1982   -3.2353    0.9889 H         1 UNK         0.2977 
    105 H105       28.0591    0.9510   -6.0072 H         1 UNK         0.3127 
    106 H106       29.7762    2.5325   -7.6302 H         1 UNK         0.0770 
    107 H107       27.6027    3.3865   -5.6462 H         1 UNK         0.0814 
    108 H108       28.8946    4.4107   -6.2604 H         1 UNK         0.0814 
    109 H109       29.2795    3.0375   -5.2375 H         1 UNK         0.0814 
    110 H110       26.3242    1.7912   -7.9558 H         1 UNK         0.2983 
    111 H111       25.6530    3.9055   -9.7830 H         1 UNK         0.0947 
    112 H112       23.6812    2.4714  -10.2755 H         1 UNK         0.0806 
    113 H113       23.9458    2.5676   -8.5415 H         1 UNK         0.0806 
    114 H114       24.4186    1.1191   -9.4279 H         1 UNK         0.0806 
    115 H115       27.4601    0.9428  -10.1631 H         1 UNK         0.3000 
    116 H116       27.4930    1.1618  -13.1398 H         1 UNK         0.0850 
    117 H117       28.4460   -1.1207  -13.0453 H         1 UNK         0.0810 
    118 H118       26.9284   -1.0882  -12.1654 H         1 UNK         0.0810 
    119 H119       28.4581   -1.0893  -11.2882 H         1 UNK         0.0810 
    120 H120       28.9857    2.6606  -10.7066 H         1 UNK         0.3040 
    121 H121       30.8846    3.6323  -10.2426 H         1 UNK         0.0766 
    122 H122       31.7997    3.0576  -13.1071 H         1 UNK         0.0812 
    123 H123       32.4324    4.2907  -12.0294 H         1 UNK         0.0812 
    124 H124       30.7866    4.4178  -12.6236 H         1 UNK         0.0812 
    125 H125       30.6501    0.6267   -9.8924 H         1 UNK         0.3205 
    126 H126       33.5056   -0.2080   -9.8862 H         1 UNK         0.0754 
    127 H127       32.4202   -2.4799   -9.3889 H         1 UNK         0.0769 
    128 H128       32.0650   -1.7861  -10.9600 H         1 UNK         0.0769 
    129 H129       30.8627   -1.7117   -9.6895 H         1 UNK         0.0769 
    130 H130       31.6342    1.4926   -7.8070 H         1 UNK         0.2981 
    131 H131       33.3966    0.8725   -5.6148 H         1 UNK         0.0541 
    132 H132       32.9476    3.1894   -7.4997 H         1 UNK         0.3459 
    133 H133       32.6236    4.5204   -6.4245 H         1 UNK         0.3459 
    134 H134       31.1521   -0.5900   -5.3987 H         1 UNK         0.0612 
    135 H135       30.4782    0.8770   -4.7732 H         1 UNK         0.0612 
    136 H136       33.7061   -1.8162   -2.8399 H         1 UNK         0.0624 
    137 H137       33.5370   -1.5765   -4.5596 H         1 UNK         0.0624 
@<TRIPOS>BOND
     1    1    2 1    
     2    1   72 1    
     3    1   73 1    
     4    1   74 1    
     5    2    3 2    
     6    2    4 am   BACKBONE|DICT|INTERRES
     7    4    5 1    
     8    4   75 1    
     9    5    6 1    
    10    5   35 1    
    11    5   76 1    
    12    6    7 1    
    13    6   77 1    
    14    6   78 1    
    15    7    8 1    
    16    8    9 1    
    17    8   79 1    
    18    8   80 1    
    19    9   10 ar   
    20    9   14 ar   
    21   10   11 ar   
    22   10   81 1    
    23   11   12 ar   
    24   11   71 1    
    25   12   13 ar   
    26   12   82 1    
    27   13   14 ar   
    28   13   15 1    
    29   14   83 1    
    30   15   16 1    
    31   15   84 1    
    32   15   85 1    
    33   16   17 1    
    34   17   18 1    
    35   17   86 1    
    36   17   87 1    
    37   18   19 1    
    38   18   37 1    
    39   18   88 1    
    40   19   20 am   BACKBONE|DICT|INTERRES
    41   19   89 1    
    42   20   21 2    
    43   20   22 1    
    44   22   23 1    
    45   22   24 1    
    46   22   90 1    
    47   23   91 1    
    48   23   92 1    
    49   23   93 1    
    50   24   25 am   BACKBONE|DICT|INTERRES
    51   24   94 1    
    52   25   26 2    
    53   25   27 1    
    54   27   28 1    
    55   27   29 1    
    56   27   95 1    
    57   28   96 1    
    58   28   97 1    
    59   28   98 1    
    60   29   30 am   BACKBONE|DICT|INTERRES
    61   29   99 1    
    62   30   31 2    
    63   30   32 1    
    64   32   33 1    
    65   32   34 1    
    66   32  100 1    
    67   33  101 1    
    68   33  102 1    
    69   33  103 1    
    70   34   35 am   BACKBONE|DICT|INTERRES
    71   34  104 1    
    72   35   36 2    
    73   37   38 2    
    74   37   39 am   BACKBONE|DICT|INTERRES
    75   39   40 1    
    76   39  105 1    
    77   40   41 1    
    78   40   42 1    
    79   40  106 1    
    80   41  107 1    
    81   41  108 1    
    82   41  109 1    
    83   42   43 2    
    84   42   44 am   BACKBONE|DICT|INTERRES
    85   44   45 1    
    86   44  110 1    
    87   45   46 1    
    88   45   47 1    
    89   45  111 1    
    90   46  112 1    
    91   46  113 1    
    92   46  114 1    
    93   47   48 2    
    94   47   49 am   BACKBONE|DICT|INTERRES
    95   49   50 1    
    96   49  115 1    
    97   50   51 1    
    98   50   52 1    
    99   50  116 1    
   100   51  117 1    
   101   51  118 1    
   102   51  119 1    
   103   52   53 2    
   104   52   54 am   BACKBONE|DICT|INTERRES
   105   54   55 1    
   106   54  120 1    
   107   55   56 1    
   108   55   57 1    
   109   55  121 1    
   110   56  122 1    
   111   56  123 1    
   112   56  124 1    
   113   57   58 2    
   114   57   59 am   BACKBONE|DICT|INTERRES
   115   59   60 1    
   116   59  125 1    
   117   60   61 1    
   118   60   62 1    
   119   60  126 1    
   120   61  127 1    
   121   61  128 1    
   122   61  129 1    
   123   62   63 2    
   124   62   64 am   BACKBONE|DICT|INTERRES
   125   64   65 1    
   126   64  130 1    
   127   65   66 1    
   128   65   69 1    
   129   65  131 1    
   130   66   67 am   BACKBONE|DICT|INTERRES
   131   66   68 2    
   132   67  132 1    
   133   67  133 1    
   134   69   70 1    
   135   69  134 1    
   136   69  135 1    
   137   70   71 1    
   138   71  136 1    
   139   71  137 1    
@<TRIPOS>SUBSTRUCTURE
     1 UNK         1 GROUP             0       ****    0 ROOT    
