@<TRIPOS>MOLECULE
3R137
137   139    1
SMALL
USER_CHARGES


@<TRIPOS>ATOM
      1 CA         22.4620   -1.3238   -7.5296 C.3       0 UNK        -0.2020 
      2 C          22.5981   -2.5488   -6.6380 C.2       0 UNK         0.4855 
      3 O          21.5939   -3.1744   -6.2956 O.2       0 UNK        -0.5197 
      4 N          23.8363   -2.9031   -6.2769 N.am      1 UNK        -0.4892 
      5 CA         24.1673   -4.0202   -5.3880 C.3       1 UNK         0.0835 
      6 C6         25.5569   -4.6114   -5.7442 C.3       12 UNK        -0.0855 
      7 S7         26.9496   -3.4598   -5.4791 S.3       12 UNK        -0.2931 
      8 C8         28.2149   -4.6052   -4.8552 C.3       12 UNK         0.0378 
      9 C9         29.5046   -3.8750   -4.5195 C.ar      12 UNK        -0.0802 
     10 C10        30.5752   -3.8600   -5.4218 C.ar      12 UNK        -0.0944 
     11 C11        31.7692   -3.2077   -5.0944 C.ar      12 UNK        -0.0787 
     12 C12        31.8825   -2.5746   -3.8532 C.ar      12 UNK        -0.0862 
     13 C13        30.8069   -2.5468   -2.9638 C.ar      12 UNK        -0.0733 
     14 C14        29.6258   -3.2156   -3.2934 C.ar      12 UNK        -0.0832 
     15 C15        30.9191   -1.7732   -1.6589 C.3       12 UNK         0.0240 
     16 S16        29.7656   -0.3636   -1.5906 S.3       12 UNK        -0.2522 
     17 C17        30.1523    0.5730   -3.1157 C.3       12 UNK        -0.0967 
     18 CA         29.0901    0.3710   -4.2308 C.3       5 UNK         0.0660 
     19 N          27.7331    0.6253   -3.7282 N.am      5 UNK        -0.4015 
     20 C          26.5880    0.5009   -4.4095 C.2       4 UNK         0.4946 
     21 O          26.5342    0.2166   -5.6057 O.2       4 UNK        -0.5353 
     22 CA         25.2937    0.7620   -3.6166 C.3       4 UNK         0.0277 
     23 CB         24.0328    0.6847   -4.4963 C.3       4 UNK        -0.1981 
     24 N          25.1585   -0.1578   -2.4810 N.am      4 UNK        -0.4209 
     25 C          25.7672    0.0135   -1.2967 C.2       3 UNK         0.4942 
     26 O          26.5228    0.9608   -1.0719 O.2       3 UNK        -0.5208 
     27 CA         25.5045   -0.9979   -0.1650 C.3       3 UNK         0.0250 
     28 CB         24.7341   -0.3262    0.9850 C.3       3 UNK        -0.1990 
     29 N          24.7627   -2.1837   -0.5931 N.am      3 UNK        -0.4232 
     30 C          25.3121   -3.2867   -1.1163 C.2       2 UNK         0.4993 
     31 O          26.5225   -3.4377   -1.2848 O.2       2 UNK        -0.5286 
     32 CA         24.3516   -4.4172   -1.5400 C.3       2 UNK         0.0209 
     33 CB         22.9172   -4.2792   -0.9773 C.3       2 UNK        -0.1931 
     34 N          24.3173   -4.5752   -2.9993 N.am      2 UNK        -0.4546 
     35 C          24.0382   -3.6191   -3.8992 C.2       1 UNK         0.5154 
     36 O          23.7079   -2.4711   -3.5852 O.2       1 UNK        -0.5181 
     37 C          29.4344    1.2067   -5.4847 C.2       5 UNK         0.5014 
     38 O          30.0789    0.7069   -6.4076 O.2       5 UNK        -0.5248 
     39 N          28.9592    2.4594   -5.5229 N.am      6 UNK        -0.4434 
     40 CA         29.1066    3.3702   -6.6605 C.3       6 UNK         0.0363 
     41 CB         28.7374    4.7937   -6.2140 C.3       6 UNK        -0.1936 
     42 C          28.2863    2.9662   -7.9014 C.2       6 UNK         0.5081 
     43 O          28.6255    3.4055   -8.9998 O.2       6 UNK        -0.5248 
     44 N          27.2355    2.1513   -7.7231 N.am      7 UNK        -0.4718 
     45 CA         26.3797    1.6548   -8.8056 C.3       7 UNK         0.0273 
     46 CB         24.9472    1.4670   -8.2776 C.3       7 UNK        -0.1935 
     47 C          26.9115    0.3551   -9.4385 C.2       7 UNK         0.5018 
     48 O          26.3530   -0.0846  -10.4454 O.2       7 UNK        -0.5186 
     49 N          27.9698   -0.2311   -8.8593 N.am      8 UNK        -0.4240 
     50 CA         28.7312   -1.3441   -9.4277 C.3       8 UNK         0.0235 
     51 CB         29.3094   -2.1919   -8.2789 C.3       8 UNK        -0.2000 
     52 C          29.8036   -0.8052  -10.3951 C.2       8 UNK         0.4941 
     53 O          29.5480    0.1538  -11.1266 O.2       8 UNK        -0.5273 
     54 N          31.0102   -1.3859  -10.3757 N.am      9 UNK        -0.4262 
     55 CA         32.1651   -0.9800  -11.1874 C.3       9 UNK         0.0264 
     56 CB         33.1414   -2.1684  -11.2794 C.3       9 UNK        -0.1955 
     57 C          32.8486    0.3072  -10.6698 C.2       9 UNK         0.5031 
     58 O          34.0791    0.3702  -10.6350 O.2       9 UNK        -0.5390 
     59 N          32.0382    1.2982  -10.2640 N.am      10 UNK        -0.4204 
     60 CA         32.4041    2.5726   -9.6329 C.3       10 UNK         0.0237 
     61 CB         33.0283    3.5255  -10.6739 C.3       10 UNK        -0.1985 
     62 C          33.2900    2.3779   -8.3857 C.2       10 UNK         0.4970 
     63 O          34.3188    3.0434   -8.2495 O.2       10 UNK        -0.4914 
     64 N          32.8933    1.4368   -7.5187 N.am      11 UNK        -0.4285 
     65 CA         33.6898    0.9817   -6.3703 C.3       11 UNK         0.1007 
     66 C          33.7893    2.0015   -5.1979 C.2       11 UNK         0.5703 
     67 N          32.9568    3.0347   -5.1410 N.am      11 UNK        -0.7361 
     68 O          34.6402    1.8501   -4.3247 O.2       11 UNK        -0.4986 
     69 C69        33.2113   -0.3930   -5.8403 C.3       12 UNK        -0.0947 
     70 S70        32.9927   -1.6927   -7.1033 S.3       12 UNK        -0.2240 
     71 C71        32.9458   -3.1944   -6.0658 C.3       12 UNK         0.0194 
     72 H72        23.3727   -1.1466   -8.1028 H         1 UNK         0.0906 
     73 H73        21.6435   -1.4585   -8.2381 H         1 UNK         0.0906 
     74 H74        22.2509   -0.4390   -6.9278 H         1 UNK         0.0906 
     75 H75        24.6242   -2.3256   -6.5375 H         1 UNK         0.3140 
     76 H76        23.4306   -4.8102   -5.5513 H         1 UNK         0.1085 
     77 H77        25.7305   -5.5327   -5.1863 H         1 UNK         0.0836 
     78 H78        25.5672   -4.9103   -6.7938 H         1 UNK         0.0836 
     79 H79        28.3997   -5.3813   -5.5996 H         1 UNK         0.0731 
     80 H80        27.8388   -5.1103   -3.9638 H         1 UNK         0.0731 
     81 H81        30.4805   -4.3586   -6.3766 H         1 UNK         0.1312 
     82 H82        32.8044   -2.0775   -3.5876 H         1 UNK         0.1406 
     83 H83        28.7907   -3.2011   -2.6052 H         1 UNK         0.1631 
     84 H84        31.9348   -1.4042   -1.5082 H         1 UNK         0.0717 
     85 H85        30.7081   -2.4437   -0.8247 H         1 UNK         0.0717 
     86 H86        30.2216    1.6280   -2.8435 H         1 UNK         0.0934 
     87 H87        31.1459    0.2934   -3.4647 H         1 UNK         0.0934 
     88 H88        29.1142   -0.6751   -4.5423 H         1 UNK         0.0739 
     89 H89        27.6600    0.8281   -2.7355 H         1 UNK         0.3093 
     90 H90        25.3527    1.7840   -3.2358 H         1 UNK         0.0818 
     91 H91        24.0564    1.4457   -5.2768 H         1 UNK         0.0819 
     92 H92        23.9458   -0.2826   -4.9889 H         1 UNK         0.0819 
     93 H93        23.1268    0.8468   -3.9124 H         1 UNK         0.0819 
     94 H94        24.6016   -0.9928   -2.6462 H         1 UNK         0.3041 
     95 H95        26.4797   -1.3075    0.2178 H         1 UNK         0.0784 
     96 H96        25.2756    0.5412    1.3654 H         1 UNK         0.0793 
     97 H97        23.7500    0.0189    0.6653 H         1 UNK         0.0793 
     98 H98        24.5955   -1.0101    1.8226 H         1 UNK         0.0793 
     99 H99        23.7559   -2.1390   -0.5258 H         1 UNK         0.3024 
    100 H100       24.7766   -5.3364   -1.1328 H         1 UNK         0.1171 
    101 H101       22.3204   -5.1586   -1.2197 H         1 UNK         0.0786 
    102 H102       22.9257   -4.1936    0.1103 H         1 UNK         0.0786 
    103 H103       22.3923   -3.4112   -1.3775 H         1 UNK         0.0786 
    104 H104       24.6044   -5.4820   -3.3396 H         1 UNK         0.2977 
    105 H105       28.4277    2.7971   -4.7336 H         1 UNK         0.3127 
    106 H106       30.1572    3.3698   -6.9576 H         1 UNK         0.0770 
    107 H107       27.6975    4.8588   -5.8911 H         1 UNK         0.0814 
    108 H108       28.8692    5.5052   -7.0306 H         1 UNK         0.0814 
    109 H109       29.3684    5.1292   -5.3908 H         1 UNK         0.0814 
    110 H110       27.0543    1.7586   -6.8043 H         1 UNK         0.2983 
    111 H111       26.3428    2.4020   -9.6016 H         1 UNK         0.0947 
    112 H112       24.2671    1.1962   -9.0861 H         1 UNK         0.0806 
    113 H113       24.5648    2.3827   -7.8268 H         1 UNK         0.0806 
    114 H114       24.8931    0.6754   -7.5316 H         1 UNK         0.0806 
    115 H115       28.3630    0.2064   -8.0362 H         1 UNK         0.3000 
    116 H116       28.0614   -1.9796  -10.0106 H         1 UNK         0.0850 
    117 H117       29.7908   -3.0989   -8.6456 H         1 UNK         0.0810 
    118 H118       28.5188   -2.5106   -7.6039 H         1 UNK         0.0810 
    119 H119       30.0368   -1.6379   -7.6849 H         1 UNK         0.0810 
    120 H120       31.1715   -2.1290   -9.7109 H         1 UNK         0.3040 
    121 H121       31.8148   -0.7625  -12.1987 H         1 UNK         0.0766 
    122 H122       33.5579   -2.4221  -10.3035 H         1 UNK         0.0812 
    123 H123       33.9774   -1.9402  -11.9419 H         1 UNK         0.0812 
    124 H124       32.6513   -3.0568  -11.6780 H         1 UNK         0.0812 
    125 H125       31.0428    1.1379  -10.3982 H         1 UNK         0.3205 
    126 H126       31.4746    3.0246   -9.2838 H         1 UNK         0.0754 
    127 H127       33.2187    4.5085  -10.2412 H         1 UNK         0.0769 
    128 H128       32.3637    3.6711  -11.5256 H         1 UNK         0.0769 
    129 H129       33.9782    3.1450  -11.0514 H         1 UNK         0.0769 
    130 H130       32.0164    0.9523   -7.6582 H         1 UNK         0.2981 
    131 H131       34.7101    0.8435   -6.7332 H         1 UNK         0.0541 
    132 H132       32.2652    3.1685   -5.8587 H         1 UNK         0.3459 
    133 H133       33.0373    3.6920   -4.3818 H         1 UNK         0.3459 
    134 H134       32.2557   -0.2789   -5.3328 H         1 UNK         0.0612 
    135 H135       33.9216   -0.7606   -5.0981 H         1 UNK         0.0612 
    136 H136       32.8973   -4.0662   -6.7197 H         1 UNK         0.0624 
    137 H137       33.8844   -3.2804   -5.5164 H         1 UNK         0.0624 
@<TRIPOS>BOND
     1    1    2 1    
     2    1   72 1    
     3    1   73 1    
     4    1   74 1    
     5    2    3 2    
     6    2    4 am   BACKBONE|DICT|INTERRES
     7    4    5 1    
     8    4   75 1    
     9    5    6 1    
    10    5   35 1    
    11    5   76 1    
    12    6    7 1    
    13    6   77 1    
    14    6   78 1    
    15    7    8 1    
    16    8    9 1    
    17    8   79 1    
    18    8   80 1    
    19    9   10 ar   
    20    9   14 ar   
    21   10   11 ar   
    22   10   81 1    
    23   11   12 ar   
    24   11   71 1    
    25   12   13 ar   
    26   12   82 1    
    27   13   14 ar   
    28   13   15 1    
    29   14   83 1    
    30   15   16 1    
    31   15   84 1    
    32   15   85 1    
    33   16   17 1    
    34   17   18 1    
    35   17   86 1    
    36   17   87 1    
    37   18   19 1    
    38   18   37 1    
    39   18   88 1    
    40   19   20 am   BACKBONE|DICT|INTERRES
    41   19   89 1    
    42   20   21 2    
    43   20   22 1    
    44   22   23 1    
    45   22   24 1    
    46   22   90 1    
    47   23   91 1    
    48   23   92 1    
    49   23   93 1    
    50   24   25 am   BACKBONE|DICT|INTERRES
    51   24   94 1    
    52   25   26 2    
    53   25   27 1    
    54   27   28 1    
    55   27   29 1    
    56   27   95 1    
    57   28   96 1    
    58   28   97 1    
    59   28   98 1    
    60   29   30 am   BACKBONE|DICT|INTERRES
    61   29   99 1    
    62   30   31 2    
    63   30   32 1    
    64   32   33 1    
    65   32   34 1    
    66   32  100 1    
    67   33  101 1    
    68   33  102 1    
    69   33  103 1    
    70   34   35 am   BACKBONE|DICT|INTERRES
    71   34  104 1    
    72   35   36 2    
    73   37   38 2    
    74   37   39 am   BACKBONE|DICT|INTERRES
    75   39   40 1    
    76   39  105 1    
    77   40   41 1    
    78   40   42 1    
    79   40  106 1    
    80   41  107 1    
    81   41  108 1    
    82   41  109 1    
    83   42   43 2    
    84   42   44 am   BACKBONE|DICT|INTERRES
    85   44   45 1    
    86   44  110 1    
    87   45   46 1    
    88   45   47 1    
    89   45  111 1    
    90   46  112 1    
    91   46  113 1    
    92   46  114 1    
    93   47   48 2    
    94   47   49 am   BACKBONE|DICT|INTERRES
    95   49   50 1    
    96   49  115 1    
    97   50   51 1    
    98   50   52 1    
    99   50  116 1    
   100   51  117 1    
   101   51  118 1    
   102   51  119 1    
   103   52   53 2    
   104   52   54 am   BACKBONE|DICT|INTERRES
   105   54   55 1    
   106   54  120 1    
   107   55   56 1    
   108   55   57 1    
   109   55  121 1    
   110   56  122 1    
   111   56  123 1    
   112   56  124 1    
   113   57   58 2    
   114   57   59 am   BACKBONE|DICT|INTERRES
   115   59   60 1    
   116   59  125 1    
   117   60   61 1    
   118   60   62 1    
   119   60  126 1    
   120   61  127 1    
   121   61  128 1    
   122   61  129 1    
   123   62   63 2    
   124   62   64 am   BACKBONE|DICT|INTERRES
   125   64   65 1    
   126   64  130 1    
   127   65   66 1    
   128   65   69 1    
   129   65  131 1    
   130   66   67 am   BACKBONE|DICT|INTERRES
   131   66   68 2    
   132   67  132 1    
   133   67  133 1    
   134   69   70 1    
   135   69  134 1    
   136   69  135 1    
   137   70   71 1    
   138   71  136 1    
   139   71  137 1    
@<TRIPOS>SUBSTRUCTURE
     1 UNK         1 GROUP             0       ****    0 ROOT    
