@<TRIPOS>MOLECULE
3R137
137   139    1
SMALL
USER_CHARGES


@<TRIPOS>ATOM
      1 CA         28.5193   -6.5764   -2.5641 C.3       0 UNK        -0.2020 
      2 C          27.7346   -5.9062   -1.4471 C.2       0 UNK         0.4855 
      3 O          26.7868   -6.4950   -0.9272 O.2       0 UNK        -0.5197 
      4 N          28.1343   -4.6871   -1.0614 N.am      1 UNK        -0.4892 
      5 CA         27.5291   -3.9136    0.0290 C.3       1 UNK         0.0835 
      6 C6         28.4565   -2.7570    0.4936 C.3       12 UNK        -0.0855 
      7 S7         28.5113   -1.2885   -0.6045 S.3       12 UNK        -0.2931 
      8 C8         30.2471   -1.2396   -1.1650 C.3       12 UNK         0.0378 
      9 C9         30.5442   -1.8910   -2.5181 C.ar      12 UNK        -0.0802 
     10 C10        31.8179   -1.6978   -3.0562 C.ar      12 UNK        -0.0944 
     11 C11        32.1615   -2.2160   -4.3075 C.ar      12 UNK        -0.0787 
     12 C12        31.2269   -2.9885   -5.0018 C.ar      12 UNK        -0.0862 
     13 C13        29.9503   -3.2188   -4.4785 C.ar      12 UNK        -0.0733 
     14 C14        29.6103   -2.6433   -3.2454 C.ar      12 UNK        -0.0832 
     15 C15        28.9931   -4.1105   -5.2754 C.3       12 UNK         0.0240 
     16 S16        27.2197   -3.9444   -4.8525 S.3       12 UNK        -0.2522 
     17 C17        26.4624   -3.8168   -6.5108 C.3       12 UNK        -0.0967 
     18 CA         26.3013   -2.3855   -7.0955 C.3       5 UNK         0.0660 
     19 N          25.1330   -1.6562   -6.5937 N.am      5 UNK        -0.4015 
     20 C          24.5774   -0.6274   -7.2570 C.2       4 UNK         0.4946 
     21 O          24.9846   -0.2154   -8.3441 O.2       4 UNK        -0.5353 
     22 CA         23.3872    0.0851   -6.5962 C.3       4 UNK         0.0277 
     23 CB         22.0931   -0.7212   -6.7914 C.3       4 UNK        -0.1981 
     24 N          23.5981    0.3446   -5.1732 N.am      4 UNK        -0.4209 
     25 C          24.5491    1.1480   -4.6744 C.2       3 UNK         0.4942 
     26 O          25.3308    1.8013   -5.3644 O.2       3 UNK        -0.5208 
     27 CA         24.6757    1.1902   -3.1416 C.3       3 UNK         0.0250 
     28 CB         23.7715    2.2848   -2.5534 C.3       3 UNK        -0.1990 
     29 N          24.3763   -0.0967   -2.5012 N.am      3 UNK        -0.4232 
     30 C          25.0710   -1.2206   -2.7235 C.2       2 UNK         0.4993 
     31 O          26.0249   -1.2874   -3.5028 O.2       2 UNK        -0.5286 
     32 CA         24.5918   -2.4881   -2.0078 C.3       2 UNK         0.0209 
     33 CB         23.7863   -3.3775   -2.9695 C.3       2 UNK        -0.1931 
     34 N          25.7723   -3.2140   -1.5520 N.am      2 UNK        -0.4546 
     35 C          26.0944   -3.4195   -0.2685 C.2       1 UNK         0.5154 
     36 O          25.3268   -3.2050    0.6720 O.2       1 UNK        -0.5181 
     37 C          27.5739   -1.5225   -7.0121 C.2       5 UNK         0.5014 
     38 O          28.3678   -1.5474   -7.9516 O.2       5 UNK        -0.5248 
     39 N          27.7242   -0.7502   -5.9234 N.am      6 UNK        -0.4434 
     40 CA         28.8208    0.2007   -5.7285 C.3       6 UNK         0.0363 
     41 CB         28.7181    0.8391   -4.3348 C.3       6 UNK        -0.1936 
     42 C          28.8523    1.2802   -6.8219 C.2       6 UNK         0.5081 
     43 O          29.9207    1.5569   -7.3676 O.2       6 UNK        -0.5248 
     44 N          27.6752    1.8305   -7.1547 N.am      7 UNK        -0.4718 
     45 CA         27.4791    2.7753   -8.2541 C.3       7 UNK         0.0273 
     46 CB         26.0555    3.3516   -8.1994 C.3       7 UNK        -0.1935 
     47 C          27.7656    2.1529   -9.6297 C.2       7 UNK         0.5018 
     48 O          28.4822    2.7656  -10.4210 O.2       7 UNK        -0.5186 
     49 N          27.2364    0.9453   -9.8823 N.am      8 UNK        -0.4240 
     50 CA         27.4423    0.1937  -11.1267 C.3       8 UNK         0.0235 
     51 CB         26.5423   -1.0517  -11.1420 C.3       8 UNK        -0.2000 
     52 C          28.9106   -0.1973  -11.3678 C.2       8 UNK         0.4941 
     53 O          29.3851   -0.0943  -12.4995 O.2       8 UNK        -0.5273 
     54 N          29.6092   -0.6096  -10.3014 N.am      9 UNK        -0.4262 
     55 CA         31.0416   -0.9166  -10.3073 C.3       9 UNK         0.0264 
     56 CB         31.3804   -1.7336   -9.0475 C.3       9 UNK        -0.1955 
     57 C          31.9401    0.3322  -10.3801 C.2       9 UNK         0.5031 
     58 O          33.1281    0.1865  -10.6719 O.2       9 UNK        -0.5390 
     59 N          31.3778    1.5150  -10.0820 N.am      10 UNK        -0.4204 
     60 CA         32.0539    2.8040   -9.8872 C.3       10 UNK         0.0237 
     61 CB         32.6438    3.3296  -11.2131 C.3       10 UNK        -0.1985 
     62 C          33.0827    2.7382   -8.7405 C.2       10 UNK         0.4970 
     63 O          34.2024    3.2360   -8.8769 O.2       10 UNK        -0.4914 
     64 N          32.6839    2.0823   -7.6445 N.am      11 UNK        -0.4285 
     65 CA         33.5043    1.8318   -6.4571 C.3       11 UNK         0.1007 
     66 C          33.7683    3.1214   -5.6313 C.2       11 UNK         0.5703 
     67 N          34.9156    3.2136   -4.9729 N.am      11 UNK        -0.7361 
     68 O          32.9341    4.0224   -5.5568 O.2       11 UNK        -0.4986 
     69 C69        32.8782    0.7019   -5.5967 C.3       12 UNK        -0.0947 
     70 S70        34.1388   -0.2538   -4.6890 S.3       12 UNK        -0.2240 
     71 C71        33.5428   -1.9666   -4.9094 C.3       12 UNK         0.0194 
     72 H72        27.8956   -6.6781   -3.4518 H         1 UNK         0.0906 
     73 H73        29.4099   -6.0085   -2.8321 H         1 UNK         0.0906 
     74 H74        28.8366   -7.5720   -2.2553 H         1 UNK         0.0906 
     75 H75        28.9345   -4.2615   -1.5068 H         1 UNK         0.3140 
     76 H76        27.4342   -4.5999    0.8741 H         1 UNK         0.1085 
     77 H77        28.1232   -2.4064    1.4722 H         1 UNK         0.0836 
     78 H78        29.4651   -3.1373    0.6609 H         1 UNK         0.0836 
     79 H79        30.5270   -0.1870   -1.2317 H         1 UNK         0.0731 
     80 H80        30.8965   -1.6732   -0.4037 H         1 UNK         0.0731 
     81 H81        32.5431   -1.1165   -2.5031 H         1 UNK         0.1312 
     82 H82        31.4953   -3.4153   -5.9588 H         1 UNK         0.1406 
     83 H83        28.6120   -2.7690   -2.8600 H         1 UNK         0.1631 
     84 H84        29.1335   -3.9038   -6.3369 H         1 UNK         0.0717 
     85 H85        29.2851   -5.1513   -5.1353 H         1 UNK         0.0717 
     86 H86        27.0473   -4.4258   -7.2023 H         1 UNK         0.0934 
     87 H87        25.4877   -4.3053   -6.4707 H         1 UNK         0.0934 
     88 H88        26.1187   -2.5367   -8.1617 H         1 UNK         0.0739 
     89 H89        24.8028   -1.8985   -5.6713 H         1 UNK         0.3093 
     90 H90        23.2654    1.0500   -7.0934 H         1 UNK         0.0818 
     91 H91        21.2272   -0.1796   -6.4100 H         1 UNK         0.0819 
     92 H92        21.9109   -0.9136   -7.8497 H         1 UNK         0.0819 
     93 H93        22.1341   -1.6875   -6.2871 H         1 UNK         0.0819 
     94 H94        22.9978   -0.1419   -4.5242 H         1 UNK         0.3041 
     95 H95        25.7124    1.4408   -2.9069 H         1 UNK         0.0784 
     96 H96        23.9917    3.2542   -3.0031 H         1 UNK         0.0793 
     97 H97        22.7152    2.0768   -2.7287 H         1 UNK         0.0793 
     98 H98        23.9208    2.3879   -1.4784 H         1 UNK         0.0793 
     99 H99        23.6018   -0.1128   -1.8528 H         1 UNK         0.3024 
    100 H100       23.9557   -2.2072   -1.1653 H         1 UNK         0.1171 
    101 H101       23.4560   -4.2911   -2.4749 H         1 UNK         0.0786 
    102 H102       22.8943   -2.8621   -3.3274 H         1 UNK         0.0786 
    103 H103       24.3711   -3.6672   -3.8430 H         1 UNK         0.0786 
    104 H104       26.4797   -3.3666   -2.2582 H         1 UNK         0.2977 
    105 H105       27.0575   -0.8457   -5.1616 H         1 UNK         0.3127 
    106 H106       29.7549   -0.3624   -5.7806 H         1 UNK         0.0770 
    107 H107       27.8333    1.4686   -4.2418 H         1 UNK         0.0814 
    108 H108       29.5881    1.4636   -4.1293 H         1 UNK         0.0814 
    109 H109       28.6674    0.0830   -3.5522 H         1 UNK         0.0814 
    110 H110       26.8501    1.5826   -6.6150 H         1 UNK         0.2983 
    111 H111       28.1838    3.5976   -8.1120 H         1 UNK         0.0947 
    112 H112       25.8897    4.0640   -9.0086 H         1 UNK         0.0806 
    113 H113       25.8789    3.8788   -7.2617 H         1 UNK         0.0806 
    114 H114       25.2989    2.5712   -8.2889 H         1 UNK         0.0806 
    115 H115       26.6216    0.5242   -9.1906 H         1 UNK         0.3000 
    116 H116       27.1369    0.8410  -11.9515 H         1 UNK         0.0850 
    117 H117       26.6518   -1.6011  -12.0779 H         1 UNK         0.0810 
    118 H118       25.4903   -0.7828  -11.0451 H         1 UNK         0.0810 
    119 H119       26.7897   -1.7364  -10.3309 H         1 UNK         0.0810 
    120 H120       29.1212   -0.7468   -9.4163 H         1 UNK         0.3040 
    121 H121       31.2592   -1.5298  -11.1842 H         1 UNK         0.0766 
    122 H122       30.8088   -2.6610   -9.0105 H         1 UNK         0.0812 
    123 H123       31.1646   -1.1735   -8.1365 H         1 UNK         0.0812 
    124 H124       32.4373   -2.0022   -9.0235 H         1 UNK         0.0812 
    125 H125       30.3921    1.5126   -9.8508 H         1 UNK         0.3205 
    126 H126       31.2827    3.5060   -9.5661 H         1 UNK         0.0754 
    127 H127       33.0391    4.3386  -11.0909 H         1 UNK         0.0769 
    128 H128       31.8838    3.3715  -11.9935 H         1 UNK         0.0769 
    129 H129       33.4600    2.7023  -11.5727 H         1 UNK         0.0769 
    130 H130       31.7112    1.7858   -7.5860 H         1 UNK         0.2981 
    131 H131       34.4670    1.4799   -6.8343 H         1 UNK         0.0541 
    132 H132       35.5899    2.4648   -5.0027 H         1 UNK         0.3459 
    133 H133       35.1019    4.0366   -4.4220 H         1 UNK         0.3459 
    134 H134       32.1381    1.0890   -4.8937 H         1 UNK         0.0612 
    135 H135       32.3360    0.0043   -6.2371 H         1 UNK         0.0612 
    136 H136       34.2548   -2.6468   -4.4408 H         1 UNK         0.0624 
    137 H137       33.5463   -2.1985   -5.9757 H         1 UNK         0.0624 
@<TRIPOS>BOND
     1    1    2 1    
     2    1   72 1    
     3    1   73 1    
     4    1   74 1    
     5    2    3 2    
     6    2    4 am   BACKBONE|DICT|INTERRES
     7    4    5 1    
     8    4   75 1    
     9    5    6 1    
    10    5   35 1    
    11    5   76 1    
    12    6    7 1    
    13    6   77 1    
    14    6   78 1    
    15    7    8 1    
    16    8    9 1    
    17    8   79 1    
    18    8   80 1    
    19    9   10 ar   
    20    9   14 ar   
    21   10   11 ar   
    22   10   81 1    
    23   11   12 ar   
    24   11   71 1    
    25   12   13 ar   
    26   12   82 1    
    27   13   14 ar   
    28   13   15 1    
    29   14   83 1    
    30   15   16 1    
    31   15   84 1    
    32   15   85 1    
    33   16   17 1    
    34   17   18 1    
    35   17   86 1    
    36   17   87 1    
    37   18   19 1    
    38   18   37 1    
    39   18   88 1    
    40   19   20 am   BACKBONE|DICT|INTERRES
    41   19   89 1    
    42   20   21 2    
    43   20   22 1    
    44   22   23 1    
    45   22   24 1    
    46   22   90 1    
    47   23   91 1    
    48   23   92 1    
    49   23   93 1    
    50   24   25 am   BACKBONE|DICT|INTERRES
    51   24   94 1    
    52   25   26 2    
    53   25   27 1    
    54   27   28 1    
    55   27   29 1    
    56   27   95 1    
    57   28   96 1    
    58   28   97 1    
    59   28   98 1    
    60   29   30 am   BACKBONE|DICT|INTERRES
    61   29   99 1    
    62   30   31 2    
    63   30   32 1    
    64   32   33 1    
    65   32   34 1    
    66   32  100 1    
    67   33  101 1    
    68   33  102 1    
    69   33  103 1    
    70   34   35 am   BACKBONE|DICT|INTERRES
    71   34  104 1    
    72   35   36 2    
    73   37   38 2    
    74   37   39 am   BACKBONE|DICT|INTERRES
    75   39   40 1    
    76   39  105 1    
    77   40   41 1    
    78   40   42 1    
    79   40  106 1    
    80   41  107 1    
    81   41  108 1    
    82   41  109 1    
    83   42   43 2    
    84   42   44 am   BACKBONE|DICT|INTERRES
    85   44   45 1    
    86   44  110 1    
    87   45   46 1    
    88   45   47 1    
    89   45  111 1    
    90   46  112 1    
    91   46  113 1    
    92   46  114 1    
    93   47   48 2    
    94   47   49 am   BACKBONE|DICT|INTERRES
    95   49   50 1    
    96   49  115 1    
    97   50   51 1    
    98   50   52 1    
    99   50  116 1    
   100   51  117 1    
   101   51  118 1    
   102   51  119 1    
   103   52   53 2    
   104   52   54 am   BACKBONE|DICT|INTERRES
   105   54   55 1    
   106   54  120 1    
   107   55   56 1    
   108   55   57 1    
   109   55  121 1    
   110   56  122 1    
   111   56  123 1    
   112   56  124 1    
   113   57   58 2    
   114   57   59 am   BACKBONE|DICT|INTERRES
   115   59   60 1    
   116   59  125 1    
   117   60   61 1    
   118   60   62 1    
   119   60  126 1    
   120   61  127 1    
   121   61  128 1    
   122   61  129 1    
   123   62   63 2    
   124   62   64 am   BACKBONE|DICT|INTERRES
   125   64   65 1    
   126   64  130 1    
   127   65   66 1    
   128   65   69 1    
   129   65  131 1    
   130   66   67 am   BACKBONE|DICT|INTERRES
   131   66   68 2    
   132   67  132 1    
   133   67  133 1    
   134   69   70 1    
   135   69  134 1    
   136   69  135 1    
   137   70   71 1    
   138   71  136 1    
   139   71  137 1    
@<TRIPOS>SUBSTRUCTURE
     1 UNK         1 GROUP             0       ****    0 ROOT    
