@<TRIPOS>MOLECULE
3R137
137   139    1
SMALL
USER_CHARGES


@<TRIPOS>ATOM
      1 CA         26.2883   -5.1954    2.0786 C.3       0 UNK        -0.2020 
      2 C          26.7702   -3.7604    2.2335 C.2       0 UNK         0.4855 
      3 O          26.7691   -3.2326    3.3464 O.2       0 UNK        -0.5197 
      4 N          27.1875   -3.1347    1.1272 N.am      1 UNK        -0.4892 
      5 CA         27.6253   -1.7375    1.0546 C.3       1 UNK         0.0835 
      6 C6         28.9286   -1.6082    0.2163 C.3       12 UNK        -0.0855 
      7 S7         28.7318   -2.0131   -1.5567 S.3       12 UNK        -0.2931 
      8 C8         29.8878   -3.3991   -1.7789 C.3       12 UNK         0.0378 
      9 C9         30.1089   -3.6613   -3.2606 C.ar      12 UNK        -0.0802 
     10 C10        31.1883   -3.0703   -3.9234 C.ar      12 UNK        -0.0944 
     11 C11        31.3671   -3.2495   -5.2994 C.ar      12 UNK        -0.0787 
     12 C12        30.4625   -4.0484   -6.0098 C.ar      12 UNK        -0.0862 
     13 C13        29.3952   -4.6704   -5.3512 C.ar      12 UNK        -0.0733 
     14 C14        29.2217   -4.4682   -3.9780 C.ar      12 UNK        -0.0832 
     15 C15        28.4520   -5.6023   -6.0999 C.3       12 UNK         0.0240 
     16 S16        26.8031   -4.8671   -6.3504 S.3       12 UNK        -0.2522 
     17 C17        26.8228   -4.3946   -8.1175 C.3       12 UNK        -0.0967 
     18 CA         26.5404   -2.8952   -8.3825 C.3       5 UNK         0.0660 
     19 N          25.3242   -2.4189   -7.7185 N.am      5 UNK        -0.4015 
     20 C          24.7309   -1.2424   -7.9654 C.2       4 UNK         0.4946 
     21 O          25.1022   -0.4591   -8.8388 O.2       4 UNK        -0.5353 
     22 CA         23.5598   -0.8490   -7.0484 C.3       4 UNK         0.0277 
     23 CB         22.2359   -1.4107   -7.5903 C.3       4 UNK        -0.1981 
     24 N          23.7484   -1.2764   -5.6570 N.am      4 UNK        -0.4209 
     25 C          24.7407   -0.8495   -4.8637 C.2       3 UNK         0.4942 
     26 O          25.5989   -0.0391   -5.2209 O.2       3 UNK        -0.5208 
     27 CA         24.8262   -1.5024   -3.4757 C.3       3 UNK         0.0250 
     28 CB         25.5836   -2.8377   -3.5586 C.3       3 UNK        -0.1990 
     29 N          25.5056   -0.6481   -2.5042 N.am      3 UNK        -0.4232 
     30 C          24.9641    0.4220   -1.9064 C.2       2 UNK         0.4993 
     31 O          23.8218    0.8254   -2.1363 O.2       2 UNK        -0.5286 
     32 CA         25.8423    1.1430   -0.8581 C.3       2 UNK         0.0209 
     33 CB         25.0167    1.9746    0.1474 C.3       2 UNK        -0.1931 
     34 N          26.7680    0.2384   -0.1553 N.am      2 UNK        -0.4546 
     35 C          26.4528   -0.8414    0.5810 C.2       1 UNK         0.5154 
     36 O          25.2930   -1.1528    0.8653 O.2       1 UNK        -0.5181 
     37 C          27.7653   -2.0153   -8.0700 C.2       5 UNK         0.5014 
     38 O          28.5734   -1.7806   -8.9676 O.2       5 UNK        -0.5248 
     39 N          27.8624   -1.5103   -6.8318 N.am      6 UNK        -0.4434 
     40 CA         28.9184   -0.5947   -6.4042 C.3       6 UNK         0.0363 
     41 CB         28.9172   -0.4604   -4.8755 C.3       6 UNK        -0.1936 
     42 C          28.7806    0.7779   -7.0697 C.2       6 UNK         0.5081 
     43 O          29.7762    1.3216   -7.5467 O.2       6 UNK        -0.5248 
     44 N          27.5419    1.2869   -7.1325 N.am      7 UNK        -0.4718 
     45 CA         27.1859    2.5220   -7.8333 C.3       7 UNK         0.0273 
     46 CB         25.7177    2.8732   -7.5453 C.3       7 UNK        -0.1935 
     47 C          27.4492    2.4440   -9.3475 C.2       7 UNK         0.5018 
     48 O          27.9578    3.4093   -9.9179 O.2       7 UNK        -0.5186 
     49 N          27.1285    1.2949   -9.9609 N.am      8 UNK        -0.4240 
     50 CA         27.4053    0.9985  -11.3680 C.3       8 UNK         0.0235 
     51 CB         26.6564   -0.2760  -11.7897 C.3       8 UNK        -0.2000 
     52 C          28.9087    0.8716  -11.6677 C.2       8 UNK         0.4941 
     53 O          29.3692    1.4259  -12.6666 O.2       8 UNK        -0.5273 
     54 N          29.6454    0.1530  -10.8070 N.am      9 UNK        -0.4262 
     55 CA         31.0948   -0.0360  -10.9172 C.3       9 UNK         0.0264 
     56 CB         31.5416   -1.1613   -9.9676 C.3       9 UNK        -0.1955 
     57 C          31.9031    1.2400  -10.6311 C.2       9 UNK         0.5031 
     58 O          32.9728    1.4108  -11.2178 O.2       9 UNK        -0.5390 
     59 N          31.3976    2.0818   -9.7159 N.am      10 UNK        -0.4204 
     60 CA         32.0508    3.2583   -9.1290 C.3       10 UNK         0.0237 
     61 CB         32.2870    4.3584  -10.1859 C.3       10 UNK        -0.1985 
     62 C          33.3213    2.8763   -8.3422 C.2       10 UNK         0.4970 
     63 O          34.3178    3.6009   -8.3820 O.2       10 UNK        -0.4914 
     64 N          33.2629    1.7241   -7.6625 N.am      11 UNK        -0.4285 
     65 CA         34.3470    1.1549   -6.8543 C.3       11 UNK         0.1007 
     66 C          34.6083    1.9305   -5.5313 C.2       11 UNK         0.5703 
     67 N          35.7742    1.7421   -4.9271 N.am      11 UNK        -0.7361 
     68 O          33.7694    2.6833   -5.0379 O.2       11 UNK        -0.4986 
     69 C69        34.1386   -0.3684   -6.6324 C.3       12 UNK        -0.0947 
     70 S70        32.5633   -0.7908   -5.8169 S.3       12 UNK        -0.2240 
     71 C71        32.5538   -2.6021   -6.0053 C.3       12 UNK         0.0194 
     72 H72        26.8859   -5.8613    2.7006 H         1 UNK         0.0906 
     73 H73        25.2482   -5.2771    2.3930 H         1 UNK         0.0906 
     74 H74        26.3587   -5.5413    1.0475 H         1 UNK         0.0906 
     75 H75        27.1314   -3.6075    0.2363 H         1 UNK         0.3140 
     76 H76        27.8649   -1.3849    2.0603 H         1 UNK         0.1085 
     77 H77        29.3386   -0.6000    0.2962 H         1 UNK         0.0836 
     78 H78        29.6947   -2.2534    0.6494 H         1 UNK         0.0836 
     79 H79        30.8381   -3.1677   -1.2950 H         1 UNK         0.0731 
     80 H80        29.4938   -4.2896   -1.2869 H         1 UNK         0.0731 
     81 H81        31.8790   -2.4464   -3.3728 H         1 UNK         0.1312 
     82 H82        30.5984   -4.2004   -7.0719 H         1 UNK         0.1406 
     83 H83        28.3881   -4.9334   -3.4691 H         1 UNK         0.1631 
     84 H84        28.3306   -6.5169   -5.5176 H         1 UNK         0.0717 
     85 H85        28.8859   -5.9168   -7.0497 H         1 UNK         0.0717 
     86 H86        27.7631   -4.6918   -8.5856 H         1 UNK         0.0934 
     87 H87        26.0581   -4.9921   -8.6163 H         1 UNK         0.0934 
     88 H88        26.3646   -2.7940   -9.4557 H         1 UNK         0.0739 
     89 H89        24.9590   -3.0085   -6.9851 H         1 UNK         0.3093 
     90 H90        23.4948    0.2412   -7.0526 H         1 UNK         0.0818 
     91 H91        21.3865   -1.0619   -7.0026 H         1 UNK         0.0819 
     92 H92        22.0688   -1.0879   -8.6191 H         1 UNK         0.0819 
     93 H93        22.2239   -2.5013   -7.5853 H         1 UNK         0.0819 
     94 H94        23.0848   -1.9456   -5.2928 H         1 UNK         0.3041 
     95 H95        23.8133   -1.6943   -3.1147 H         1 UNK         0.0784 
     96 H96        26.5965   -2.7070   -3.9427 H         1 UNK         0.0793 
     97 H97        25.6593   -3.3125   -2.5801 H         1 UNK         0.0793 
     98 H98        25.0707   -3.5409   -4.2154 H         1 UNK         0.0793 
     99 H99        26.4588   -0.8943   -2.2769 H         1 UNK         0.3024 
    100 H100       26.4631    1.8384   -1.4257 H         1 UNK         0.1171 
    101 H101       24.4352    2.7427   -0.3641 H         1 UNK         0.0786 
    102 H102       25.6604    2.4831    0.8650 H         1 UNK         0.0786 
    103 H103       24.3142    1.3553    0.7060 H         1 UNK         0.0786 
    104 H104       27.7481    0.3936   -0.3487 H         1 UNK         0.2977 
    105 H105       27.1358   -1.7116   -6.1613 H         1 UNK         0.3127 
    106 H106       29.8686   -1.0301   -6.7140 H         1 UNK         0.0770 
    107 H107       28.0606    0.1014   -4.5049 H         1 UNK         0.0814 
    108 H108       29.8151    0.0537   -4.5316 H         1 UNK         0.0814 
    109 H109       28.9015   -1.4389   -4.4025 H         1 UNK         0.0814 
    110 H110       26.7914    0.7825   -6.6697 H         1 UNK         0.2983 
    111 H111       27.8137    3.3202   -7.4313 H         1 UNK         0.0947 
    112 H112       25.4442    3.8185   -8.0157 H         1 UNK         0.0806 
    113 H113       25.5374    2.9781   -6.4751 H         1 UNK         0.0806 
    114 H114       25.0370    2.1112   -7.9252 H         1 UNK         0.0806 
    115 H115       26.6339    0.5825   -9.4299 H         1 UNK         0.3000 
    116 H116       27.0189    1.8288  -11.9630 H         1 UNK         0.0850 
    117 H117       26.8239   -0.4962  -12.8448 H         1 UNK         0.0810 
    118 H118       25.5809   -0.1689  -11.6470 H         1 UNK         0.0810 
    119 H119       26.9839   -1.1448  -11.2185 H         1 UNK         0.0810 
    120 H120       29.1806   -0.3397  -10.0470 H         1 UNK         0.3040 
    121 H121       31.3176   -0.3455  -11.9405 H         1 UNK         0.0766 
    122 H122       32.6183   -1.3249  -10.0307 H         1 UNK         0.0812 
    123 H123       31.0558   -2.1050  -10.2156 H         1 UNK         0.0812 
    124 H124       31.3072   -0.9293   -8.9276 H         1 UNK         0.0812 
    125 H125       30.5503    1.7920   -9.2321 H         1 UNK         0.3205 
    126 H126       31.3488    3.6548   -8.3939 H         1 UNK         0.0754 
    127 H127       32.6392    5.2786   -9.7184 H         1 UNK         0.0769 
    128 H128       31.3664    4.5973  -10.7187 H         1 UNK         0.0769 
    129 H129       33.0344    4.0624  -10.9224 H         1 UNK         0.0769 
    130 H130       32.3844    1.2265   -7.6284 H         1 UNK         0.2981 
    131 H131       35.2574    1.2634   -7.4471 H         1 UNK         0.0541 
    132 H132       35.9620    2.2291   -4.0647 H         1 UNK         0.3459 
    133 H133       36.4704    1.1251   -5.3152 H         1 UNK         0.3459 
    134 H134       34.9587   -0.7915   -6.0499 H         1 UNK         0.0612 
    135 H135       34.1662   -0.8778   -7.5970 H         1 UNK         0.0612 
    136 H136       32.5502   -2.8440   -7.0692 H         1 UNK         0.0624 
    137 H137       33.4769   -3.0110   -5.5924 H         1 UNK         0.0624 
@<TRIPOS>BOND
     1    1    2 1    
     2    1   72 1    
     3    1   73 1    
     4    1   74 1    
     5    2    3 2    
     6    2    4 am   BACKBONE|DICT|INTERRES
     7    4    5 1    
     8    4   75 1    
     9    5    6 1    
    10    5   35 1    
    11    5   76 1    
    12    6    7 1    
    13    6   77 1    
    14    6   78 1    
    15    7    8 1    
    16    8    9 1    
    17    8   79 1    
    18    8   80 1    
    19    9   10 ar   
    20    9   14 ar   
    21   10   11 ar   
    22   10   81 1    
    23   11   12 ar   
    24   11   71 1    
    25   12   13 ar   
    26   12   82 1    
    27   13   14 ar   
    28   13   15 1    
    29   14   83 1    
    30   15   16 1    
    31   15   84 1    
    32   15   85 1    
    33   16   17 1    
    34   17   18 1    
    35   17   86 1    
    36   17   87 1    
    37   18   19 1    
    38   18   37 1    
    39   18   88 1    
    40   19   20 am   BACKBONE|DICT|INTERRES
    41   19   89 1    
    42   20   21 2    
    43   20   22 1    
    44   22   23 1    
    45   22   24 1    
    46   22   90 1    
    47   23   91 1    
    48   23   92 1    
    49   23   93 1    
    50   24   25 am   BACKBONE|DICT|INTERRES
    51   24   94 1    
    52   25   26 2    
    53   25   27 1    
    54   27   28 1    
    55   27   29 1    
    56   27   95 1    
    57   28   96 1    
    58   28   97 1    
    59   28   98 1    
    60   29   30 am   BACKBONE|DICT|INTERRES
    61   29   99 1    
    62   30   31 2    
    63   30   32 1    
    64   32   33 1    
    65   32   34 1    
    66   32  100 1    
    67   33  101 1    
    68   33  102 1    
    69   33  103 1    
    70   34   35 am   BACKBONE|DICT|INTERRES
    71   34  104 1    
    72   35   36 2    
    73   37   38 2    
    74   37   39 am   BACKBONE|DICT|INTERRES
    75   39   40 1    
    76   39  105 1    
    77   40   41 1    
    78   40   42 1    
    79   40  106 1    
    80   41  107 1    
    81   41  108 1    
    82   41  109 1    
    83   42   43 2    
    84   42   44 am   BACKBONE|DICT|INTERRES
    85   44   45 1    
    86   44  110 1    
    87   45   46 1    
    88   45   47 1    
    89   45  111 1    
    90   46  112 1    
    91   46  113 1    
    92   46  114 1    
    93   47   48 2    
    94   47   49 am   BACKBONE|DICT|INTERRES
    95   49   50 1    
    96   49  115 1    
    97   50   51 1    
    98   50   52 1    
    99   50  116 1    
   100   51  117 1    
   101   51  118 1    
   102   51  119 1    
   103   52   53 2    
   104   52   54 am   BACKBONE|DICT|INTERRES
   105   54   55 1    
   106   54  120 1    
   107   55   56 1    
   108   55   57 1    
   109   55  121 1    
   110   56  122 1    
   111   56  123 1    
   112   56  124 1    
   113   57   58 2    
   114   57   59 am   BACKBONE|DICT|INTERRES
   115   59   60 1    
   116   59  125 1    
   117   60   61 1    
   118   60   62 1    
   119   60  126 1    
   120   61  127 1    
   121   61  128 1    
   122   61  129 1    
   123   62   63 2    
   124   62   64 am   BACKBONE|DICT|INTERRES
   125   64   65 1    
   126   64  130 1    
   127   65   66 1    
   128   65   69 1    
   129   65  131 1    
   130   66   67 am   BACKBONE|DICT|INTERRES
   131   66   68 2    
   132   67  132 1    
   133   67  133 1    
   134   69   70 1    
   135   69  134 1    
   136   69  135 1    
   137   70   71 1    
   138   71  136 1    
   139   71  137 1    
@<TRIPOS>SUBSTRUCTURE
     1 UNK         1 GROUP             0       ****    0 ROOT    
