@<TRIPOS>MOLECULE
3R137
137   139    1
SMALL
USER_CHARGES


@<TRIPOS>ATOM
      1 CA         23.8600   -5.7470   -0.6247 C.3       0 UNK        -0.2020 
      2 C          25.0510   -4.8669   -0.9747 C.2       0 UNK         0.4855 
      3 O          25.2299   -4.5251   -2.1431 O.2       0 UNK        -0.5197 
      4 N          25.8636   -4.5097    0.0298 N.am      1 UNK        -0.4892 
      5 CA         27.0303   -3.6216   -0.0682 C.3       1 UNK         0.0835 
      6 C6         28.1355   -4.1815   -1.0117 C.3       12 UNK        -0.0855 
      7 S7         29.8134   -3.6754   -0.5015 S.3       12 UNK        -0.2931 
      8 C8         30.8445   -4.7396   -1.5565 C.3       12 UNK         0.0378 
      9 C9         30.8816   -4.2417   -2.9937 C.ar      12 UNK        -0.0802 
     10 C10        31.8501   -3.3127   -3.3896 C.ar      12 UNK        -0.0944 
     11 C11        31.9163   -2.8801   -4.7171 C.ar      12 UNK        -0.0787 
     12 C12        30.9829   -3.3601   -5.6389 C.ar      12 UNK        -0.0862 
     13 C13        30.0069   -4.2860   -5.2604 C.ar      12 UNK        -0.0733 
     14 C14        29.9710   -4.7332   -3.9350 C.ar      12 UNK        -0.0832 
     15 C15        29.0467   -4.8301   -6.3159 C.3       12 UNK         0.0240 
     16 S16        27.3209   -5.0266   -5.7555 S.3       12 UNK        -0.2522 
     17 C17        26.8699   -3.3407   -5.2321 C.3       12 UNK        -0.0967 
     18 CA         26.5802   -2.3810   -6.4214 C.3       5 UNK         0.0660 
     19 N          25.3463   -1.6143   -6.2256 N.am      5 UNK        -0.4015 
     20 C          24.7602   -0.8523   -7.1614 C.2       4 UNK         0.4946 
     21 O          25.1706   -0.7485   -8.3167 O.2       4 UNK        -0.5353 
     22 CA         23.5188   -0.0462   -6.7419 C.3       4 UNK         0.0277 
     23 CB         22.2381   -0.8370   -7.0528 C.3       4 UNK        -0.1981 
     24 N          23.5156    0.3495   -5.3323 N.am      4 UNK        -0.4209 
     25 C          24.4138    1.1548   -4.7470 C.2       3 UNK         0.4942 
     26 O          25.3571    1.6752   -5.3460 O.2       3 UNK        -0.5208 
     27 CA         24.2443    1.4087   -3.2337 C.3       3 UNK         0.0250 
     28 CB         23.0770    0.6235   -2.5913 C.3       3 UNK        -0.1990 
     29 N          25.4657    1.1694   -2.4539 N.am      3 UNK        -0.4232 
     30 C          26.2765    0.1009   -2.5043 C.2       2 UNK         0.4993 
     31 O          26.2037   -0.7839   -3.3613 O.2       2 UNK        -0.5286 
     32 CA         27.3742   -0.0002   -1.4242 C.3       2 UNK         0.0209 
     33 CB         27.1901    0.9647   -0.2296 C.3       2 UNK        -0.1931 
     34 N          27.5376   -1.3816   -0.9571 N.am      2 UNK        -0.4546 
     35 C          26.6149   -2.1602   -0.3718 C.2       1 UNK         0.5154 
     36 O          25.4934   -1.7630   -0.0407 O.2       1 UNK        -0.5181 
     37 C          27.7632   -1.4305   -6.6806 C.2       5 UNK         0.5014 
     38 O          28.4677   -1.5779   -7.6821 O.2       5 UNK        -0.5248 
     39 N          27.9189   -0.4379   -5.7926 N.am      6 UNK        -0.4434 
     40 CA         28.9318    0.6076   -5.9154 C.3       6 UNK         0.0363 
     41 CB         29.0484    1.4124   -4.6149 C.3       6 UNK        -0.1936 
     42 C          28.6994    1.5299   -7.1162 C.2       6 UNK         0.5081 
     43 O          29.6703    1.8886   -7.7777 O.2       6 UNK        -0.5248 
     44 N          27.4351    1.8656   -7.4094 N.am      7 UNK        -0.4718 
     45 CA         27.0524    2.6540   -8.5849 C.3       7 UNK         0.0273 
     46 CB         25.5563    2.9955   -8.5240 C.3       7 UNK        -0.1935 
     47 C          27.3969    1.9589   -9.9144 C.2       7 UNK         0.5018 
     48 O          27.8607    2.6292  -10.8373 O.2       7 UNK        -0.5186 
     49 N          27.1875    0.6357   -9.9825 N.am      8 UNK        -0.4240 
     50 CA         27.5459   -0.1976  -11.1311 C.3       8 UNK         0.0235 
     51 CB         26.8652   -1.5710  -11.0115 C.3       8 UNK        -0.2000 
     52 C          29.0660   -0.3562  -11.2961 C.2       8 UNK         0.4941 
     53 O          29.5673   -0.2154  -12.4124 O.2       8 UNK        -0.5273 
     54 N          29.7700   -0.6520  -10.1941 N.am      9 UNK        -0.4262 
     55 CA         31.2208   -0.8676  -10.1852 C.3       9 UNK         0.0264 
     56 CB         31.6031   -1.6390   -8.9158 C.3       9 UNK        -0.1955 
     57 C          32.0522    0.4226  -10.2892 C.2       9 UNK         0.5031 
     58 O          33.2015    0.3537  -10.7268 O.2       9 UNK        -0.5390 
     59 N          31.4774    1.5540   -9.8578 N.am      10 UNK        -0.4204 
     60 CA         32.0943    2.8764   -9.7019 C.3       10 UNK         0.0237 
     61 CB         32.5886    3.4374  -11.0530 C.3       10 UNK        -0.1985 
     62 C          33.1674    2.9154   -8.5932 C.2       10 UNK         0.4970 
     63 O          34.0826    3.7382   -8.6649 O.2       10 UNK        -0.4914 
     64 N          33.0388    2.0385   -7.5872 N.am      11 UNK        -0.4285 
     65 CA         33.9025    1.9983   -6.3991 C.3       11 UNK         0.1007 
     66 C          33.4916    3.0401   -5.3200 C.2       11 UNK         0.5703 
     67 N          34.3629    3.3061   -4.3557 N.am      11 UNK        -0.7361 
     68 O          32.3974    3.6020   -5.3368 O.2       11 UNK        -0.4986 
     69 C69        34.0513    0.5580   -5.8358 C.3       12 UNK        -0.0947 
     70 S70        32.5087   -0.2114   -5.2371 S.3       12 UNK        -0.2240 
     71 C71        33.0324   -1.9504   -5.1746 C.3       12 UNK         0.0194 
     72 H72        23.8282   -5.9901    0.4372 H         1 UNK         0.0906 
     73 H73        22.9311   -5.2398   -0.8843 H         1 UNK         0.0906 
     74 H74        23.9064   -6.6805   -1.1849 H         1 UNK         0.0906 
     75 H75        25.6326   -4.8029    0.9693 H         1 UNK         0.3140 
     76 H76        27.4371   -3.5951    0.9443 H         1 UNK         0.1085 
     77 H77        28.1124   -5.2724   -0.9955 H         1 UNK         0.0836 
     78 H78        27.9529   -3.8992   -2.0506 H         1 UNK         0.0836 
     79 H79        31.8565   -4.7601   -1.1491 H         1 UNK         0.0731 
     80 H80        30.4829   -5.7683   -1.5141 H         1 UNK         0.0731 
     81 H81        32.5675   -2.9450   -2.6686 H         1 UNK         0.1312 
     82 H82        31.0321   -3.0297   -6.6637 H         1 UNK         0.1406 
     83 H83        29.2339   -5.4659   -3.6360 H         1 UNK         0.1631 
     84 H84        29.4139   -5.8038   -6.6420 H         1 UNK         0.0717 
     85 H85        29.0492   -4.1945   -7.2025 H         1 UNK         0.0717 
     86 H86        27.6265   -2.9531   -4.5462 H         1 UNK         0.0934 
     87 H87        25.9789   -3.4533   -4.6120 H         1 UNK         0.0934 
     88 H88        26.4338   -2.9697   -7.3298 H         1 UNK         0.0739 
     89 H89        24.9875   -1.5814   -5.2810 H         1 UNK         0.3093 
     90 H90        23.5023    0.8680   -7.3366 H         1 UNK         0.0818 
     91 H91        21.3454   -0.2448   -6.8503 H         1 UNK         0.0819 
     92 H92        22.2026   -1.1216   -8.1056 H         1 UNK         0.0819 
     93 H93        22.1751   -1.7541   -6.4656 H         1 UNK         0.0819 
     94 H94        22.7787   -0.0326   -4.7572 H         1 UNK         0.3041 
     95 H95        24.0212    2.4722   -3.1365 H         1 UNK         0.0784 
     96 H96        22.1224    0.8585   -3.0641 H         1 UNK         0.0793 
     97 H97        23.2310   -0.4553   -2.6483 H         1 UNK         0.0793 
     98 H98        22.9722    0.8785   -1.5364 H         1 UNK         0.0793 
     99 H99        25.6592    1.8596   -1.7425 H         1 UNK         0.3024 
    100 H100       28.3107    0.2626   -1.9135 H         1 UNK         0.1171 
    101 H101       27.9700    0.8141    0.5172 H         1 UNK         0.0786 
    102 H102       26.2293    0.8254    0.2676 H         1 UNK         0.0786 
    103 H103       27.2561    2.0068   -0.5444 H         1 UNK         0.0786 
    104 H104       28.4252   -1.8165   -1.1772 H         1 UNK         0.2977 
    105 H105       27.2791   -0.3880   -5.0048 H         1 UNK         0.3127 
    106 H106       29.8830    0.1063   -6.0894 H         1 UNK         0.0770 
    107 H107       28.0915    1.8393   -4.3126 H         1 UNK         0.0814 
    108 H108       29.7542    2.2368   -4.7307 H         1 UNK         0.0814 
    109 H109       29.4264    0.7869   -3.8083 H         1 UNK         0.0814 
    110 H110       26.6928    1.5881   -6.7721 H         1 UNK         0.2983 
    111 H111       27.6159    3.5889   -8.5467 H         1 UNK         0.0947 
    112 H112       25.2810    3.6752   -9.3314 H         1 UNK         0.0806 
    113 H113       25.2943    3.4826   -7.5846 H         1 UNK         0.0806 
    114 H114       24.9385    2.1045   -8.6275 H         1 UNK         0.0806 
    115 H115       26.7418    0.1667   -9.1991 H         1 UNK         0.3000 
    116 H116       27.1645    0.2892  -12.0314 H         1 UNK         0.0850 
    117 H117       27.1201   -2.2101  -11.8579 H         1 UNK         0.0810 
    118 H118       25.7796   -1.4729  -10.9944 H         1 UNK         0.0810 
    119 H119       27.1651   -2.0944  -10.1027 H         1 UNK         0.0810 
    120 H120       29.2745   -0.8041   -9.3185 H         1 UNK         0.3040 
    121 H121       31.4799   -1.4886  -11.0456 H         1 UNK         0.0766 
    122 H122       32.6791   -1.8116   -8.8647 H         1 UNK         0.0812 
    123 H123       31.3140   -1.0948   -8.0159 H         1 UNK         0.0812 
    124 H124       31.1161   -2.6137   -8.8972 H         1 UNK         0.0812 
    125 H125       30.5590    1.4800   -9.4266 H         1 UNK         0.3205 
    126 H126       31.2936    3.5315   -9.3556 H         1 UNK         0.0754 
    127 H127       32.8811    4.4838  -10.9575 H         1 UNK         0.0769 
    128 H128       31.8070    3.3888  -11.8113 H         1 UNK         0.0769 
    129 H129       33.4556    2.8929  -11.4277 H         1 UNK         0.0769 
    130 H130       32.2152    1.4558   -7.5559 H         1 UNK         0.2981 
    131 H131       34.9016    2.2962   -6.7233 H         1 UNK         0.0541 
    132 H132       35.2627    2.8531   -4.3243 H         1 UNK         0.3459 
    133 H133       34.1138    3.9748   -3.6440 H         1 UNK         0.3459 
    134 H134       34.4716   -0.0809   -6.6142 H         1 UNK         0.0612 
    135 H135       34.7770    0.5413   -5.0210 H         1 UNK         0.0612 
    136 H136       33.3771   -2.2564   -6.1636 H         1 UNK         0.0624 
    137 H137       33.8927   -2.0390   -4.5093 H         1 UNK         0.0624 
@<TRIPOS>BOND
     1    1    2 1    
     2    1   72 1    
     3    1   73 1    
     4    1   74 1    
     5    2    3 2    
     6    2    4 am   BACKBONE|DICT|INTERRES
     7    4    5 1    
     8    4   75 1    
     9    5    6 1    
    10    5   35 1    
    11    5   76 1    
    12    6    7 1    
    13    6   77 1    
    14    6   78 1    
    15    7    8 1    
    16    8    9 1    
    17    8   79 1    
    18    8   80 1    
    19    9   10 ar   
    20    9   14 ar   
    21   10   11 ar   
    22   10   81 1    
    23   11   12 ar   
    24   11   71 1    
    25   12   13 ar   
    26   12   82 1    
    27   13   14 ar   
    28   13   15 1    
    29   14   83 1    
    30   15   16 1    
    31   15   84 1    
    32   15   85 1    
    33   16   17 1    
    34   17   18 1    
    35   17   86 1    
    36   17   87 1    
    37   18   19 1    
    38   18   37 1    
    39   18   88 1    
    40   19   20 am   BACKBONE|DICT|INTERRES
    41   19   89 1    
    42   20   21 2    
    43   20   22 1    
    44   22   23 1    
    45   22   24 1    
    46   22   90 1    
    47   23   91 1    
    48   23   92 1    
    49   23   93 1    
    50   24   25 am   BACKBONE|DICT|INTERRES
    51   24   94 1    
    52   25   26 2    
    53   25   27 1    
    54   27   28 1    
    55   27   29 1    
    56   27   95 1    
    57   28   96 1    
    58   28   97 1    
    59   28   98 1    
    60   29   30 am   BACKBONE|DICT|INTERRES
    61   29   99 1    
    62   30   31 2    
    63   30   32 1    
    64   32   33 1    
    65   32   34 1    
    66   32  100 1    
    67   33  101 1    
    68   33  102 1    
    69   33  103 1    
    70   34   35 am   BACKBONE|DICT|INTERRES
    71   34  104 1    
    72   35   36 2    
    73   37   38 2    
    74   37   39 am   BACKBONE|DICT|INTERRES
    75   39   40 1    
    76   39  105 1    
    77   40   41 1    
    78   40   42 1    
    79   40  106 1    
    80   41  107 1    
    81   41  108 1    
    82   41  109 1    
    83   42   43 2    
    84   42   44 am   BACKBONE|DICT|INTERRES
    85   44   45 1    
    86   44  110 1    
    87   45   46 1    
    88   45   47 1    
    89   45  111 1    
    90   46  112 1    
    91   46  113 1    
    92   46  114 1    
    93   47   48 2    
    94   47   49 am   BACKBONE|DICT|INTERRES
    95   49   50 1    
    96   49  115 1    
    97   50   51 1    
    98   50   52 1    
    99   50  116 1    
   100   51  117 1    
   101   51  118 1    
   102   51  119 1    
   103   52   53 2    
   104   52   54 am   BACKBONE|DICT|INTERRES
   105   54   55 1    
   106   54  120 1    
   107   55   56 1    
   108   55   57 1    
   109   55  121 1    
   110   56  122 1    
   111   56  123 1    
   112   56  124 1    
   113   57   58 2    
   114   57   59 am   BACKBONE|DICT|INTERRES
   115   59   60 1    
   116   59  125 1    
   117   60   61 1    
   118   60   62 1    
   119   60  126 1    
   120   61  127 1    
   121   61  128 1    
   122   61  129 1    
   123   62   63 2    
   124   62   64 am   BACKBONE|DICT|INTERRES
   125   64   65 1    
   126   64  130 1    
   127   65   66 1    
   128   65   69 1    
   129   65  131 1    
   130   66   67 am   BACKBONE|DICT|INTERRES
   131   66   68 2    
   132   67  132 1    
   133   67  133 1    
   134   69   70 1    
   135   69  134 1    
   136   69  135 1    
   137   70   71 1    
   138   71  136 1    
   139   71  137 1    
@<TRIPOS>SUBSTRUCTURE
     1 UNK         1 GROUP             0       ****    0 ROOT    
