@<TRIPOS>MOLECULE
3R137
137   139    1
SMALL
USER_CHARGES


@<TRIPOS>ATOM
      1 CA         24.1047    2.9304   -5.0580 C.3       0 UNK        -0.2020 
      2 C          23.6849    1.7267   -5.8889 C.2       0 UNK         0.4855 
      3 O          22.7907    1.8437   -6.7276 O.2       0 UNK        -0.5197 
      4 N          24.3317    0.5804   -5.6646 N.am      1 UNK        -0.4892 
      5 CA         24.0819   -0.6971   -6.3363 C.3       1 UNK         0.0835 
      6 C6         25.2723   -1.1043   -7.2515 C.3       12 UNK        -0.0855 
      7 S7         26.8728   -1.1837   -6.3762 S.3       12 UNK        -0.2931 
      8 C8         27.5466   -2.7695   -6.9468 C.3       12 UNK         0.0378 
      9 C9         28.7896   -3.1156   -6.1469 C.ar      12 UNK        -0.0802 
     10 C10        30.0593   -2.7411   -6.5986 C.ar      12 UNK        -0.0944 
     11 C11        31.1925   -3.0156   -5.8254 C.ar      12 UNK        -0.0787 
     12 C12        31.0470   -3.6632   -4.5954 C.ar      12 UNK        -0.0862 
     13 C13        29.7805   -4.0248   -4.1289 C.ar      12 UNK        -0.0733 
     14 C14        28.6588   -3.7714   -4.9208 C.ar      12 UNK        -0.0832 
     15 C15        29.6185   -4.6391   -2.7461 C.3       12 UNK         0.0240 
     16 S16        28.6596   -3.5662   -1.6230 S.3       12 UNK        -0.2522 
     17 C17        29.5089   -1.9547   -1.7845 C.3       12 UNK        -0.0967 
     18 CA         28.6703   -0.9126   -2.5780 C.3       5 UNK         0.0660 
     19 N          27.3815   -0.6735   -1.9158 N.am      5 UNK        -0.4015 
     20 C          26.3040   -0.0491   -2.4072 C.2       4 UNK         0.4946 
     21 O          26.2449    0.4733   -3.5226 O.2       4 UNK        -0.5353 
     22 CA         25.0678   -0.0523   -1.4982 C.3       4 UNK         0.0277 
     23 CB         24.0390    1.0261   -1.8840 C.3       4 UNK        -0.1981 
     24 N          24.4391   -1.3709   -1.5601 N.am      4 UNK        -0.4209 
     25 C          24.7548   -2.3973   -0.7570 C.2       3 UNK         0.4942 
     26 O          25.5759   -2.3082    0.1572 O.2       3 UNK        -0.5208 
     27 CA         24.0458   -3.7450   -0.9886 C.3       3 UNK         0.0250 
     28 CB         22.9121   -3.9356    0.0326 C.3       3 UNK        -0.1990 
     29 N          23.5013   -3.8965   -2.3394 N.am      3 UNK        -0.4232 
     30 C          24.2308   -4.1685   -3.4297 C.2       2 UNK         0.4993 
     31 O          25.4432   -4.3749   -3.4077 O.2       2 UNK        -0.5286 
     32 CA         23.4941   -4.2095   -4.7831 C.3       2 UNK         0.0209 
     33 CB         21.9611   -4.3771   -4.6635 C.3       2 UNK        -0.1931 
     34 N          23.8213   -3.0443   -5.6161 N.am      2 UNK        -0.4546 
     35 C          23.6730   -1.7522   -5.2839 C.2       1 UNK         0.5154 
     36 O          23.1973   -1.3865   -4.2042 O.2       1 UNK        -0.5181 
     37 C          29.4636    0.3925   -2.8280 C.2       5 UNK         0.5014 
     38 O          30.5561    0.5641   -2.2829 O.2       5 UNK        -0.5248 
     39 N          28.8941    1.3034   -3.6226 N.am      6 UNK        -0.4434 
     40 CA         29.4379    2.6245   -3.9338 C.3       6 UNK         0.0363 
     41 CB         29.1271    3.6038   -2.7826 C.3       6 UNK        -0.1936 
     42 C          28.9217    3.1196   -5.2951 C.2       6 UNK         0.5081 
     43 O          28.6457    4.3107   -5.4503 O.2       6 UNK        -0.5248 
     44 N          28.7838    2.2030   -6.2585 N.am      7 UNK        -0.4718 
     45 CA         28.3497    2.4703   -7.6272 C.3       7 UNK         0.0273 
     46 CB         26.8168    2.6268   -7.6699 C.3       7 UNK        -0.1935 
     47 C          28.8429    1.3388   -8.5408 C.2       7 UNK         0.5018 
     48 O          29.4989    0.4108   -8.0632 O.2       7 UNK        -0.5186 
     49 N          28.5129    1.4416   -9.8361 N.am      8 UNK        -0.4240 
     50 CA         28.8868    0.5187  -10.9149 C.3       8 UNK         0.0235 
     51 CB         28.2937   -0.8896  -10.6685 C.3       8 UNK        -0.2000 
     52 C          30.4072    0.5173  -11.1799 C.2       8 UNK         0.4941 
     53 O          31.0749    1.5243  -10.9266 O.2       8 UNK        -0.5273 
     54 N          30.9243   -0.5884  -11.7322 N.am      9 UNK        -0.4262 
     55 CA         32.3421   -0.7819  -12.0399 C.3       9 UNK         0.0264 
     56 CB         32.5163   -2.0879  -12.8319 C.3       9 UNK        -0.1955 
     57 C          33.1986   -0.8078  -10.7641 C.2       9 UNK         0.5031 
     58 O          32.8000   -1.4340   -9.7798 O.2       9 UNK        -0.5390 
     59 N          34.3564   -0.1363  -10.8162 N.am      10 UNK        -0.4204 
     60 CA         35.3672    0.0344   -9.7623 C.3       10 UNK         0.0237 
     61 CB         35.9579   -1.3169   -9.3103 C.3       10 UNK        -0.1985 
     62 C          34.8995    0.8691   -8.5557 C.2       10 UNK         0.4970 
     63 O          35.5877    1.8232   -8.1907 O.2       10 UNK        -0.4914 
     64 N          33.7640    0.4997   -7.9548 N.am      11 UNK        -0.4285 
     65 CA         33.1937    1.1551   -6.7681 C.3       11 UNK         0.1007 
     66 C          32.4591    2.4934   -7.0615 C.2       11 UNK         0.5703 
     67 N          32.1012    2.8115   -8.3000 N.am      11 UNK        -0.7361 
     68 O          32.2377    3.2777   -6.1427 O.2       11 UNK        -0.4986 
     69 C69        32.3127    0.1873   -5.9375 C.3       12 UNK        -0.0947 
     70 S70        33.2613   -1.2403   -5.3132 S.3       12 UNK        -0.2240 
     71 C71        32.5777   -2.6068   -6.3035 C.3       12 UNK         0.0194 
     72 H72        24.2601    3.7966   -5.7003 H         1 UNK         0.0906 
     73 H73        23.3286    3.1763   -4.3340 H         1 UNK         0.0906 
     74 H74        25.0323    2.7442   -4.5162 H         1 UNK         0.0906 
     75 H75        25.0349    0.5307   -4.9266 H         1 UNK         0.3140 
     76 H76        23.2038   -0.6013   -6.9782 H         1 UNK         0.1085 
     77 H77        25.3756   -0.3673   -8.0490 H         1 UNK         0.0836 
     78 H78        25.0736   -2.0439   -7.7684 H         1 UNK         0.0836 
     79 H79        27.7779   -2.7074   -8.0109 H         1 UNK         0.0731 
     80 H80        26.7986   -3.5550   -6.8290 H         1 UNK         0.0731 
     81 H81        30.1617   -2.2159   -7.5392 H         1 UNK         0.1312 
     82 H82        31.9217   -3.8541   -3.9886 H         1 UNK         0.1406 
     83 H83        27.6763   -4.0345   -4.5539 H         1 UNK         0.1631 
     84 H84        30.5906   -4.8419   -2.2939 H         1 UNK         0.0717 
     85 H85        29.1122   -5.6011   -2.8359 H         1 UNK         0.0717 
     86 H86        29.7220   -1.5846   -0.7798 H         1 UNK         0.0934 
     87 H87        30.4830   -2.1062   -2.2527 H         1 UNK         0.0934 
     88 H88        28.4551   -1.3304   -3.5630 H         1 UNK         0.0739 
     89 H89        27.2837   -1.1110   -1.0090 H         1 UNK         0.3093 
     90 H90        25.3964    0.1626   -0.4789 H         1 UNK         0.0818 
     91 H91        23.2136    1.0542   -1.1729 H         1 UNK         0.0819 
     92 H92        23.6166    0.8536   -2.8730 H         1 UNK         0.0819 
     93 H93        24.4958    2.0165   -1.8911 H         1 UNK         0.0819 
     94 H94        23.8236   -1.5299   -2.3540 H         1 UNK         0.3041 
     95 H95        24.7860   -4.5316   -0.8258 H         1 UNK         0.0784 
     96 H96        23.2900   -3.8608    1.0533 H         1 UNK         0.0793 
     97 H97        22.1331   -3.1807   -0.0823 H         1 UNK         0.0793 
     98 H98        22.4480   -4.9170   -0.0676 H         1 UNK         0.0793 
     99 H99        22.5149   -3.7158   -2.4580 H         1 UNK         0.3024 
    100 H100       23.8792   -5.0876   -5.3047 H         1 UNK         0.1171 
    101 H101       21.5099   -4.5233   -5.6450 H         1 UNK         0.0786 
    102 H102       21.7056   -5.2523   -4.0644 H         1 UNK         0.0786 
    103 H103       21.4785   -3.5104   -4.2107 H         1 UNK         0.0786 
    104 H104       24.2420   -3.2574   -6.5087 H         1 UNK         0.2977 
    105 H105       27.9569    1.1027   -3.9712 H         1 UNK         0.3127 
    106 H106       30.5223    2.5449   -4.0320 H         1 UNK         0.0770 
    107 H107       28.0525    3.7340   -2.6496 H         1 UNK         0.0814 
    108 H108       29.5567    4.5873   -2.9764 H         1 UNK         0.0814 
    109 H109       29.5428    3.2547   -1.8375 H         1 UNK         0.0814 
    110 H110       29.0729    1.2444   -6.1008 H         1 UNK         0.2983 
    111 H111       28.8205    3.3938   -7.9712 H         1 UNK         0.0947 
    112 H112       26.4589    2.8553   -8.6737 H         1 UNK         0.0806 
    113 H113       26.4807    3.4361   -7.0223 H         1 UNK         0.0806 
    114 H114       26.3219    1.7135   -7.3448 H         1 UNK         0.0806 
    115 H115       28.0090    2.2651  -10.1322 H         1 UNK         0.3000 
    116 H116       28.4252    0.9166  -11.8197 H         1 UNK         0.0850 
    117 H117       28.3336   -1.5038  -11.5685 H         1 UNK         0.0810 
    118 H118       27.2460   -0.8304  -10.3732 H         1 UNK         0.0810 
    119 H119       28.8278   -1.4218   -9.8802 H         1 UNK         0.0810 
    120 H120       30.3175   -1.3808  -11.8800 H         1 UNK         0.3040 
    121 H121       32.6627    0.0512  -12.6692 H         1 UNK         0.0766 
    122 H122       33.5622   -2.2463  -13.0986 H         1 UNK         0.0812 
    123 H123       31.9457   -2.0702  -13.7607 H         1 UNK         0.0812 
    124 H124       32.1936   -2.9555  -12.2544 H         1 UNK         0.0812 
    125 H125       34.5619    0.3590  -11.6736 H         1 UNK         0.3205 
    126 H126       36.1777    0.5963  -10.2295 H         1 UNK         0.0754 
    127 H127       35.2184   -1.9439   -8.8110 H         1 UNK         0.0769 
    128 H128       36.7777   -1.1655   -8.6069 H         1 UNK         0.0769 
    129 H129       36.3560   -1.8779  -10.1559 H         1 UNK         0.0769 
    130 H130       33.2440   -0.2782   -8.3526 H         1 UNK         0.2981 
    131 H131       34.0323    1.4331   -6.1263 H         1 UNK         0.0541 
    132 H132       32.2079    2.1581   -9.0634 H         1 UNK         0.3459 
    133 H133       31.6538    3.6978   -8.4643 H         1 UNK         0.3459 
    134 H134       31.4651   -0.1612   -6.5261 H         1 UNK         0.0612 
    135 H135       31.8910    0.6969   -5.0696 H         1 UNK         0.0612 
    136 H136       32.5600   -2.3226   -7.3551 H         1 UNK         0.0624 
    137 H137       33.2487   -3.4634   -6.2294 H         1 UNK         0.0624 
@<TRIPOS>BOND
     1    1    2 1    
     2    1   72 1    
     3    1   73 1    
     4    1   74 1    
     5    2    3 2    
     6    2    4 am   BACKBONE|DICT|INTERRES
     7    4    5 1    
     8    4   75 1    
     9    5    6 1    
    10    5   35 1    
    11    5   76 1    
    12    6    7 1    
    13    6   77 1    
    14    6   78 1    
    15    7    8 1    
    16    8    9 1    
    17    8   79 1    
    18    8   80 1    
    19    9   10 ar   
    20    9   14 ar   
    21   10   11 ar   
    22   10   81 1    
    23   11   12 ar   
    24   11   71 1    
    25   12   13 ar   
    26   12   82 1    
    27   13   14 ar   
    28   13   15 1    
    29   14   83 1    
    30   15   16 1    
    31   15   84 1    
    32   15   85 1    
    33   16   17 1    
    34   17   18 1    
    35   17   86 1    
    36   17   87 1    
    37   18   19 1    
    38   18   37 1    
    39   18   88 1    
    40   19   20 am   BACKBONE|DICT|INTERRES
    41   19   89 1    
    42   20   21 2    
    43   20   22 1    
    44   22   23 1    
    45   22   24 1    
    46   22   90 1    
    47   23   91 1    
    48   23   92 1    
    49   23   93 1    
    50   24   25 am   BACKBONE|DICT|INTERRES
    51   24   94 1    
    52   25   26 2    
    53   25   27 1    
    54   27   28 1    
    55   27   29 1    
    56   27   95 1    
    57   28   96 1    
    58   28   97 1    
    59   28   98 1    
    60   29   30 am   BACKBONE|DICT|INTERRES
    61   29   99 1    
    62   30   31 2    
    63   30   32 1    
    64   32   33 1    
    65   32   34 1    
    66   32  100 1    
    67   33  101 1    
    68   33  102 1    
    69   33  103 1    
    70   34   35 am   BACKBONE|DICT|INTERRES
    71   34  104 1    
    72   35   36 2    
    73   37   38 2    
    74   37   39 am   BACKBONE|DICT|INTERRES
    75   39   40 1    
    76   39  105 1    
    77   40   41 1    
    78   40   42 1    
    79   40  106 1    
    80   41  107 1    
    81   41  108 1    
    82   41  109 1    
    83   42   43 2    
    84   42   44 am   BACKBONE|DICT|INTERRES
    85   44   45 1    
    86   44  110 1    
    87   45   46 1    
    88   45   47 1    
    89   45  111 1    
    90   46  112 1    
    91   46  113 1    
    92   46  114 1    
    93   47   48 2    
    94   47   49 am   BACKBONE|DICT|INTERRES
    95   49   50 1    
    96   49  115 1    
    97   50   51 1    
    98   50   52 1    
    99   50  116 1    
   100   51  117 1    
   101   51  118 1    
   102   51  119 1    
   103   52   53 2    
   104   52   54 am   BACKBONE|DICT|INTERRES
   105   54   55 1    
   106   54  120 1    
   107   55   56 1    
   108   55   57 1    
   109   55  121 1    
   110   56  122 1    
   111   56  123 1    
   112   56  124 1    
   113   57   58 2    
   114   57   59 am   BACKBONE|DICT|INTERRES
   115   59   60 1    
   116   59  125 1    
   117   60   61 1    
   118   60   62 1    
   119   60  126 1    
   120   61  127 1    
   121   61  128 1    
   122   61  129 1    
   123   62   63 2    
   124   62   64 am   BACKBONE|DICT|INTERRES
   125   64   65 1    
   126   64  130 1    
   127   65   66 1    
   128   65   69 1    
   129   65  131 1    
   130   66   67 am   BACKBONE|DICT|INTERRES
   131   66   68 2    
   132   67  132 1    
   133   67  133 1    
   134   69   70 1    
   135   69  134 1    
   136   69  135 1    
   137   70   71 1    
   138   71  136 1    
   139   71  137 1    
@<TRIPOS>SUBSTRUCTURE
     1 UNK         1 GROUP             0       ****    0 ROOT    
