@<TRIPOS>MOLECULE
3R137
137   139    1
SMALL
USER_CHARGES


@<TRIPOS>ATOM
      1 CA         28.8640   -6.4698   -1.3902 C.3       0 UNK        -0.2020 
      2 C          28.4207   -5.0194   -1.5006 C.2       0 UNK         0.4855 
      3 O          28.1941   -4.5368   -2.6089 O.2       0 UNK        -0.5197 
      4 N          28.2839   -4.3295   -0.3592 N.am      1 UNK        -0.4892 
      5 CA         27.9215   -2.9104   -0.1797 C.3       1 UNK         0.0835 
      6 C6         28.9020   -1.9191   -0.8567 C.3       12 UNK        -0.0855 
      7 S7         30.5950   -2.0247   -0.1751 S.3       12 UNK        -0.2931 
      8 C8         31.5309   -2.8117   -1.5316 C.3       12 UNK         0.0378 
      9 C9         31.3993   -2.0660   -2.8541 C.ar      12 UNK        -0.0802 
     10 C10        31.7065   -0.7045   -2.9369 C.ar      12 UNK        -0.0944 
     11 C11        31.5294   -0.0052   -4.1334 C.ar      12 UNK        -0.0787 
     12 C12        31.0427   -0.6851   -5.2558 C.ar      12 UNK        -0.0862 
     13 C13        30.7778   -2.0571   -5.2018 C.ar      12 UNK        -0.0733 
     14 C14        30.9548   -2.7403   -3.9950 C.ar      12 UNK        -0.0832 
     15 C15        30.3438   -2.7965   -6.4631 C.3       12 UNK         0.0240 
     16 S16        28.8958   -3.8826   -6.2427 S.3       12 UNK        -0.2522 
     17 C17        27.6392   -2.7548   -5.5585 C.3       12 UNK        -0.0967 
     18 CA         27.0214   -1.8132   -6.6275 C.3       5 UNK         0.0660 
     19 N          25.5632   -1.7335   -6.5225 N.am      5 UNK        -0.4015 
     20 C          24.7563   -1.2274   -7.4664 C.2       4 UNK         0.4946 
     21 O          25.1521   -0.8148   -8.5561 O.2       4 UNK        -0.5353 
     22 CA         23.2583   -1.1316   -7.1261 C.3       4 UNK         0.0277 
     23 CB         22.5359   -2.4338   -7.5063 C.3       4 UNK        -0.1981 
     24 N          23.0108   -0.8276   -5.7142 N.am      4 UNK        -0.4209 
     25 C          23.3570    0.3212   -5.1151 C.2       3 UNK         0.4942 
     26 O          23.8605    1.2744   -5.7057 O.2       3 UNK        -0.5208 
     27 CA         23.1676    0.3975   -3.5908 C.3       3 UNK         0.0250 
     28 CB         21.7580    0.9036   -3.2466 C.3       3 UNK        -0.1990 
     29 N          23.4178   -0.8756   -2.9045 N.am      3 UNK        -0.4232 
     30 C          24.5819   -1.5397   -2.9268 C.2       2 UNK         0.4993 
     31 O          25.5737   -1.1661   -3.5610 O.2       2 UNK        -0.5286 
     32 CA         24.6130   -2.8820   -2.1811 C.3       2 UNK         0.0209 
     33 CB         24.2135   -4.0291   -3.1240 C.3       2 UNK        -0.1931 
     34 N          25.9429   -3.1535   -1.6399 N.am      2 UNK        -0.4546 
     35 C          26.4620   -2.5690   -0.5551 C.2       1 UNK         0.5154 
     36 O          25.8270   -1.7906    0.1591 O.2       1 UNK        -0.5181 
     37 C          27.6396   -0.4055   -6.5662 C.2       5 UNK         0.5014 
     38 O          28.4763   -0.0693   -7.4052 O.2       5 UNK        -0.5248 
     39 N          27.1797    0.4064   -5.6028 N.am      6 UNK        -0.4434 
     40 CA         27.5702    1.8093   -5.4492 C.3       6 UNK         0.0363 
     41 CB         26.9729    2.3712   -4.1502 C.3       6 UNK        -0.1936 
     42 C          27.1821    2.6790   -6.6600 C.2       6 UNK         0.5081 
     43 O          27.9710    3.5342   -7.0599 O.2       6 UNK        -0.5248 
     44 N          25.9991    2.4268   -7.2403 N.am      7 UNK        -0.4718 
     45 CA         25.5183    3.0640   -8.4698 C.3       7 UNK         0.0273 
     46 CB         24.0298    2.7428   -8.6761 C.3       7 UNK        -0.1935 
     47 C          26.3366    2.6682   -9.7109 C.2       7 UNK         0.5018 
     48 O          26.6265    3.5348  -10.5369 O.2       7 UNK        -0.5186 
     49 N          26.7099    1.3829   -9.8157 N.am      8 UNK        -0.4240 
     50 CA         27.6121    0.8654  -10.8516 C.3       8 UNK         0.0235 
     51 CB         27.5911   -0.6719  -10.8355 C.3       8 UNK        -0.2000 
     52 C          29.0535    1.3861  -10.7026 C.2       8 UNK         0.4941 
     53 O          29.7404    1.5548  -11.7106 O.2       8 UNK        -0.5273 
     54 N          29.4692    1.6335   -9.4521 N.am      9 UNK        -0.4262 
     55 CA         30.7531    2.1895   -9.0164 C.3       9 UNK         0.0264 
     56 CB         30.9529    3.6224   -9.5528 C.3       9 UNK        -0.1955 
     57 C          31.9522    1.2665   -9.2988 C.2       9 UNK         0.5031 
     58 O          33.0767    1.7481   -9.4496 O.2       9 UNK        -0.5390 
     59 N          31.7162   -0.0526   -9.3092 N.am      10 UNK        -0.4204 
     60 CA         32.7362   -1.0972   -9.4648 C.3       10 UNK         0.0237 
     61 CB         32.0745   -2.3479  -10.0746 C.3       10 UNK        -0.1985 
     62 C          33.4606   -1.3920   -8.1331 C.2       10 UNK         0.4970 
     63 O          33.5830   -2.5531   -7.7402 O.2       10 UNK        -0.4914 
     64 N          33.8774   -0.3274   -7.4410 N.am      11 UNK        -0.4285 
     65 CA         34.4284   -0.3475   -6.0809 C.3       11 UNK         0.1007 
     66 C          35.8481   -0.9697   -6.0072 C.2       11 UNK         0.5703 
     67 N          36.2064   -1.5611   -4.8753 N.am      11 UNK        -0.7361 
     68 O          36.6399   -0.8869   -6.9450 O.2       11 UNK        -0.4986 
     69 C69        34.3962    1.0630   -5.4256 C.3       12 UNK        -0.0947 
     70 S70        32.8211    1.9650   -5.6592 S.3       12 UNK        -0.2240 
     71 C71        31.8534    1.4842   -4.1911 C.3       12 UNK         0.0194 
     72 H72        29.7899   -6.6198   -1.9448 H         1 UNK         0.0906 
     73 H73        28.1040   -7.1266   -1.8126 H         1 UNK         0.0906 
     74 H74        29.0356   -6.7685   -0.3563 H         1 UNK         0.0906 
     75 H75        28.4610   -4.8158    0.5092 H         1 UNK         0.3140 
     76 H76        27.9861   -2.7377    0.8962 H         1 UNK         0.1085 
     77 H77        28.5679   -0.8909   -0.7026 H         1 UNK         0.0836 
     78 H78        28.9068   -2.0625   -1.9377 H         1 UNK         0.0836 
     79 H79        32.5848   -2.8561   -1.2541 H         1 UNK         0.0731 
     80 H80        31.1961   -3.8448   -1.6328 H         1 UNK         0.0731 
     81 H81        32.0623   -0.1860   -2.0571 H         1 UNK         0.1312 
     82 H82        30.9015   -0.1481   -6.1834 H         1 UNK         0.1406 
     83 H83        30.7291   -3.7972   -3.9437 H         1 UNK         0.1631 
     84 H84        31.1779   -3.4108   -6.8029 H         1 UNK         0.0717 
     85 H85        30.1365   -2.0972   -7.2727 H         1 UNK         0.0717 
     86 H86        26.8710   -3.4015   -5.1337 H         1 UNK         0.0934 
     87 H87        28.0453   -2.2176   -4.6981 H         1 UNK         0.0934 
     88 H88        27.2362   -2.2155   -7.6202 H         1 UNK         0.0739 
     89 H89        25.1707   -1.9646   -5.6209 H         1 UNK         0.3093 
     90 H90        22.8357   -0.3202   -7.7223 H         1 UNK         0.0818 
     91 H91        22.6898   -2.6701   -8.5603 H         1 UNK         0.0819 
     92 H92        22.8970   -3.2839   -6.9260 H         1 UNK         0.0819 
     93 H93        21.4602   -2.3515   -7.3494 H         1 UNK         0.0819 
     94 H94        22.5849   -1.5519   -5.1547 H         1 UNK         0.3041 
     95 H95        23.8916    1.1208   -3.2098 H         1 UNK         0.0784 
     96 H96        21.5586    1.8603   -3.7318 H         1 UNK         0.0793 
     97 H97        20.9852    0.2060   -3.5720 H         1 UNK         0.0793 
     98 H98        21.6423    1.0577   -2.1735 H         1 UNK         0.0793 
     99 H99        22.6485   -1.2571   -2.3722 H         1 UNK         0.3024 
    100 H100       23.9028   -2.8434   -1.3517 H         1 UNK         0.1171 
    101 H101       24.9007   -4.1223   -3.9651 H         1 UNK         0.0786 
    102 H102       24.2016   -4.9843   -2.5987 H         1 UNK         0.0786 
    103 H103       23.2140   -3.8747   -3.5326 H         1 UNK         0.0786 
    104 H104       26.5731   -3.7264   -2.1966 H         1 UNK         0.2977 
    105 H105       26.5151    0.0326   -4.9316 H         1 UNK         0.3127 
    106 H106       28.6585    1.8354   -5.3626 H         1 UNK         0.0770 
    107 H107       27.2955    3.4004   -3.9880 H         1 UNK         0.0814 
    108 H108       25.8830    2.3713   -4.1741 H         1 UNK         0.0814 
    109 H109       27.2900    1.7905   -3.2837 H         1 UNK         0.0814 
    110 H110       25.3643    1.7748   -6.7863 H         1 UNK         0.2983 
    111 H111       25.6171    4.1443   -8.3427 H         1 UNK         0.0947 
    112 H112       23.8608    1.6726   -8.7957 H         1 UNK         0.0806 
    113 H113       23.6441    3.2362   -9.5691 H         1 UNK         0.0806 
    114 H114       23.4297    3.0840   -7.8323 H         1 UNK         0.0806 
    115 H115       26.3631    0.7139   -9.1347 H         1 UNK         0.3000 
    116 H116       27.2390    1.2022  -11.8211 H         1 UNK         0.0850 
    117 H117       28.2408   -1.0802  -11.6107 H         1 UNK         0.0810 
    118 H118       26.5871   -1.0552  -11.0185 H         1 UNK         0.0810 
    119 H119       27.9306   -1.0722   -9.8799 H         1 UNK         0.0810 
    120 H120       28.8487    1.3517   -8.6973 H         1 UNK         0.3040 
    121 H121       30.6831    2.2589   -7.9299 H         1 UNK         0.0766 
    122 H122       31.8277    4.0905   -9.0999 H         1 UNK         0.0812 
    123 H123       30.0936    4.2524   -9.3217 H         1 UNK         0.0812 
    124 H124       31.1000    3.6347  -10.6330 H         1 UNK         0.0812 
    125 H125       30.7688   -0.3598   -9.1404 H         1 UNK         0.3205 
    126 H126       33.4948   -0.7486  -10.1688 H         1 UNK         0.0754 
    127 H127       32.8120   -3.1299  -10.2604 H         1 UNK         0.0769 
    128 H128       31.6020   -2.1192  -11.0302 H         1 UNK         0.0769 
    129 H129       31.3129   -2.7671   -9.4165 H         1 UNK         0.0769 
    130 H130       33.7677    0.5869   -7.8632 H         1 UNK         0.2981 
    131 H131       33.7784   -0.9989   -5.4958 H         1 UNK         0.0541 
    132 H132       37.1299   -1.9581   -4.8014 H         1 UNK         0.3459 
    133 H133       35.5699   -1.6247   -4.0962 H         1 UNK         0.3459 
    134 H134       35.1843    1.6896   -5.8473 H         1 UNK         0.0612 
    135 H135       34.6070    0.9908   -4.3572 H         1 UNK         0.0612 
    136 H136       30.9169    2.0427   -4.1941 H         1 UNK         0.0624 
    137 H137       32.3982    1.7988   -3.2997 H         1 UNK         0.0624 
@<TRIPOS>BOND
     1    1    2 1    
     2    1   72 1    
     3    1   73 1    
     4    1   74 1    
     5    2    3 2    
     6    2    4 am   BACKBONE|DICT|INTERRES
     7    4    5 1    
     8    4   75 1    
     9    5    6 1    
    10    5   35 1    
    11    5   76 1    
    12    6    7 1    
    13    6   77 1    
    14    6   78 1    
    15    7    8 1    
    16    8    9 1    
    17    8   79 1    
    18    8   80 1    
    19    9   10 ar   
    20    9   14 ar   
    21   10   11 ar   
    22   10   81 1    
    23   11   12 ar   
    24   11   71 1    
    25   12   13 ar   
    26   12   82 1    
    27   13   14 ar   
    28   13   15 1    
    29   14   83 1    
    30   15   16 1    
    31   15   84 1    
    32   15   85 1    
    33   16   17 1    
    34   17   18 1    
    35   17   86 1    
    36   17   87 1    
    37   18   19 1    
    38   18   37 1    
    39   18   88 1    
    40   19   20 am   BACKBONE|DICT|INTERRES
    41   19   89 1    
    42   20   21 2    
    43   20   22 1    
    44   22   23 1    
    45   22   24 1    
    46   22   90 1    
    47   23   91 1    
    48   23   92 1    
    49   23   93 1    
    50   24   25 am   BACKBONE|DICT|INTERRES
    51   24   94 1    
    52   25   26 2    
    53   25   27 1    
    54   27   28 1    
    55   27   29 1    
    56   27   95 1    
    57   28   96 1    
    58   28   97 1    
    59   28   98 1    
    60   29   30 am   BACKBONE|DICT|INTERRES
    61   29   99 1    
    62   30   31 2    
    63   30   32 1    
    64   32   33 1    
    65   32   34 1    
    66   32  100 1    
    67   33  101 1    
    68   33  102 1    
    69   33  103 1    
    70   34   35 am   BACKBONE|DICT|INTERRES
    71   34  104 1    
    72   35   36 2    
    73   37   38 2    
    74   37   39 am   BACKBONE|DICT|INTERRES
    75   39   40 1    
    76   39  105 1    
    77   40   41 1    
    78   40   42 1    
    79   40  106 1    
    80   41  107 1    
    81   41  108 1    
    82   41  109 1    
    83   42   43 2    
    84   42   44 am   BACKBONE|DICT|INTERRES
    85   44   45 1    
    86   44  110 1    
    87   45   46 1    
    88   45   47 1    
    89   45  111 1    
    90   46  112 1    
    91   46  113 1    
    92   46  114 1    
    93   47   48 2    
    94   47   49 am   BACKBONE|DICT|INTERRES
    95   49   50 1    
    96   49  115 1    
    97   50   51 1    
    98   50   52 1    
    99   50  116 1    
   100   51  117 1    
   101   51  118 1    
   102   51  119 1    
   103   52   53 2    
   104   52   54 am   BACKBONE|DICT|INTERRES
   105   54   55 1    
   106   54  120 1    
   107   55   56 1    
   108   55   57 1    
   109   55  121 1    
   110   56  122 1    
   111   56  123 1    
   112   56  124 1    
   113   57   58 2    
   114   57   59 am   BACKBONE|DICT|INTERRES
   115   59   60 1    
   116   59  125 1    
   117   60   61 1    
   118   60   62 1    
   119   60  126 1    
   120   61  127 1    
   121   61  128 1    
   122   61  129 1    
   123   62   63 2    
   124   62   64 am   BACKBONE|DICT|INTERRES
   125   64   65 1    
   126   64  130 1    
   127   65   66 1    
   128   65   69 1    
   129   65  131 1    
   130   66   67 am   BACKBONE|DICT|INTERRES
   131   66   68 2    
   132   67  132 1    
   133   67  133 1    
   134   69   70 1    
   135   69  134 1    
   136   69  135 1    
   137   70   71 1    
   138   71  136 1    
   139   71  137 1    
@<TRIPOS>SUBSTRUCTURE
     1 UNK         1 GROUP             0       ****    0 ROOT    
