@<TRIPOS>MOLECULE
3R137
137   139    1
SMALL
USER_CHARGES


@<TRIPOS>ATOM
      1 CA         30.1620    0.4552    0.9248 C.3       0 UNK        -0.2020 
      2 C          29.4263   -0.4734   -0.0294 C.2       0 UNK         0.4855 
      3 O          29.0187   -0.0418   -1.1067 O.2       0 UNK        -0.5197 
      4 N          29.2631   -1.7461    0.3543 N.am      1 UNK        -0.4892 
      5 CA         28.5403   -2.7660   -0.4133 C.3       1 UNK         0.0835 
      6 C6         28.8733   -4.1852    0.1123 C.3       12 UNK        -0.0855 
      7 S7         28.5578   -5.5098   -1.1045 S.3       12 UNK        -0.2931 
      8 C8         30.1883   -5.7046   -1.8970 C.3       12 UNK         0.0378 
      9 C9         30.3947   -4.6689   -2.9917 C.ar      12 UNK        -0.0802 
     10 C10        31.0635   -3.4717   -2.7236 C.ar      12 UNK        -0.0944 
     11 C11        31.2090   -2.4912   -3.7105 C.ar      12 UNK        -0.0787 
     12 C12        30.6973   -2.7432   -4.9924 C.ar      12 UNK        -0.0862 
     13 C13        30.0477   -3.9488   -5.2829 C.ar      12 UNK        -0.0733 
     14 C14        29.9029   -4.9077   -4.2765 C.ar      12 UNK        -0.0832 
     15 C15        29.5411   -4.2181   -6.6968 C.3       12 UNK         0.0240 
     16 S16        27.8564   -4.9212   -6.7824 S.3       12 UNK        -0.2522 
     17 C17        26.8324   -3.6437   -5.9793 C.3       12 UNK        -0.0967 
     18 CA         26.3481   -2.5452   -6.9627 C.3       5 UNK         0.0660 
     19 N          25.0593   -1.9761   -6.5693 N.am      5 UNK        -0.4015 
     20 C          24.2490   -1.2923   -7.3905 C.2       4 UNK         0.4946 
     21 O          24.4497   -1.1578   -8.5975 O.2       4 UNK        -0.5353 
     22 CA         23.0125   -0.6263   -6.7601 C.3       4 UNK         0.0277 
     23 CB         21.8000   -1.5686   -6.8294 C.3       4 UNK        -0.1981 
     24 N          23.2230   -0.2040   -5.3725 N.am      4 UNK        -0.4209 
     25 C          24.0713    0.7628   -4.9935 C.2       3 UNK         0.4942 
     26 O          24.7488    1.4281   -5.7757 O.2       3 UNK        -0.5208 
     27 CA         24.2323    0.9859   -3.4805 C.3       3 UNK         0.0250 
     28 CB         23.1380    1.9283   -2.9546 C.3       3 UNK        -0.1990 
     29 N          24.2436   -0.2509   -2.6880 N.am      3 UNK        -0.4232 
     30 C          25.1045   -1.2633   -2.8615 C.2       2 UNK         0.4993 
     31 O          25.9287   -1.3170   -3.7789 O.2       2 UNK        -0.5286 
     32 CA         25.0116   -2.4359   -1.8797 C.3       2 UNK         0.0209 
     33 CB         24.2708   -3.6184   -2.5248 C.3       2 UNK        -0.1931 
     34 N          26.3729   -2.8453   -1.5459 N.am      2 UNK        -0.4546 
     35 C          27.0240   -2.4792   -0.4371 C.2       1 UNK         0.5154 
     36 O          26.4823   -1.9365    0.5308 O.2       1 UNK        -0.5181 
     37 C          27.3839   -1.4189   -7.0988 C.2       5 UNK         0.5014 
     38 O          28.0326   -1.3089   -8.1391 O.2       5 UNK        -0.5248 
     39 N          27.5008   -0.5926   -6.0497 N.am      6 UNK        -0.4434 
     40 CA         28.4604    0.5050   -5.9483 C.3       6 UNK         0.0363 
     41 CB         28.3453    1.1662   -4.5677 C.3       6 UNK        -0.1936 
     42 C          28.3321    1.5441   -7.0697 C.2       6 UNK         0.5081 
     43 O          29.3490    1.9287   -7.6464 O.2       6 UNK        -0.5248 
     44 N          27.0936    1.9416   -7.3922 N.am      7 UNK        -0.4718 
     45 CA         26.7822    2.8715   -8.4810 C.3       7 UNK         0.0273 
     46 CB         25.3008    3.2725   -8.4012 C.3       7 UNK        -0.1935 
     47 C          27.1112    2.3180   -9.8785 C.2       7 UNK         0.5018 
     48 O          27.4620    3.0998  -10.7630 O.2       7 UNK        -0.5186 
     49 N          26.9936    0.9948  -10.0558 N.am      8 UNK        -0.4240 
     50 CA         27.3256    0.3022  -11.3003 C.3       8 UNK         0.0235 
     51 CB         26.5657   -1.0329  -11.3699 C.3       8 UNK        -0.2000 
     52 C          28.8388    0.0810  -11.4423 C.2       8 UNK         0.4941 
     53 O          29.3902    0.3444  -12.5116 O.2       8 UNK        -0.5273 
     54 N          29.4783   -0.4085  -10.3714 N.am      9 UNK        -0.4262 
     55 CA         30.9024   -0.7447  -10.3414 C.3       9 UNK         0.0264 
     56 CB         31.1747   -1.6926   -9.1626 C.3       9 UNK        -0.1955 
     57 C          31.8312    0.4758  -10.2592 C.2       9 UNK         0.5031 
     58 O          32.9551    0.3920  -10.7566 O.2       9 UNK        -0.5390 
     59 N          31.3717    1.5573   -9.6083 N.am      10 UNK        -0.4204 
     60 CA         32.1423    2.7495   -9.2287 C.3       10 UNK         0.0237 
     61 CB         32.5847    3.5534  -10.4705 C.3       10 UNK        -0.1985 
     62 C          33.3043    2.3857   -8.2824 C.2       10 UNK         0.4970 
     63 O          34.4435    2.8001   -8.5050 O.2       10 UNK        -0.4914 
     64 N          32.9873    1.5780   -7.2611 N.am      11 UNK        -0.4285 
     65 CA         33.9423    1.0024   -6.3005 C.3       11 UNK         0.1007 
     66 C          34.5913    2.0083   -5.3025 C.2       11 UNK         0.5703 
     67 N          34.1108    3.2413   -5.1908 N.am      11 UNK        -0.7361 
     68 O          35.5586    1.6640   -4.6273 O.2       11 UNK        -0.4986 
     69 C69        33.3400   -0.2393   -5.5872 C.3       12 UNK        -0.0947 
     70 S70        31.8856    0.1570   -4.5565 S.3       12 UNK        -0.2240 
     71 C71        31.9119   -1.1866   -3.3197 C.3       12 UNK         0.0194 
     72 H72        30.4884   -0.0606    1.8278 H         1 UNK         0.0906 
     73 H73        31.0420    0.8729    0.4361 H         1 UNK         0.0906 
     74 H74        29.5128    1.2791    1.2201 H         1 UNK         0.0906 
     75 H75        29.5829   -2.0303    1.2693 H         1 UNK         0.3140 
     76 H76        28.8897   -2.6816   -1.4429 H         1 UNK         0.1085 
     77 H77        29.9235   -4.2413    0.4030 H         1 UNK         0.0836 
     78 H78        28.3104   -4.4036    1.0222 H         1 UNK         0.0836 
     79 H79        30.9840   -5.6493   -1.1526 H         1 UNK         0.0731 
     80 H80        30.2498   -6.7056   -2.3268 H         1 UNK         0.0731 
     81 H81        31.4474   -3.2882   -1.7290 H         1 UNK         0.1312 
     82 H82        30.8038   -2.0086   -5.7761 H         1 UNK         0.1406 
     83 H83        29.3971   -5.8396   -4.4908 H         1 UNK         0.1631 
     84 H84        30.2286   -4.9127   -7.1808 H         1 UNK         0.0717 
     85 H85        29.5665   -3.3072   -7.2914 H         1 UNK         0.0717 
     86 H86        25.9698   -4.1736   -5.5734 H         1 UNK         0.0934 
     87 H87        27.3492   -3.2329   -5.1095 H         1 UNK         0.0934 
     88 H88        26.2153   -2.9967   -7.9488 H         1 UNK         0.0739 
     89 H89        24.8638   -1.9646   -5.5774 H         1 UNK         0.3093 
     90 H90        22.7875    0.2655   -7.3494 H         1 UNK         0.0818 
     91 H91        20.8956   -1.0797   -6.4666 H         1 UNK         0.0819 
     92 H92        21.6071   -1.8795   -7.8573 H         1 UNK         0.0819 
     93 H93        21.9544   -2.4729   -6.2393 H         1 UNK         0.0819 
     94 H94        22.7043   -0.6942   -4.6583 H         1 UNK         0.3041 
     95 H95        25.1974    1.4727   -3.3277 H         1 UNK         0.0784 
     96 H96        23.1230    2.8618   -3.5193 H         1 UNK         0.0793 
     97 H97        22.1455    1.4831   -3.0347 H         1 UNK         0.0793 
     98 H98        23.3065    2.1887   -1.9094 H         1 UNK         0.0793 
     99 H99        23.5871   -0.2965   -1.9215 H         1 UNK         0.3024 
    100 H100       24.4705   -2.1242   -0.9832 H         1 UNK         0.1171 
    101 H101       23.2490   -3.3437   -2.7899 H         1 UNK         0.0786 
    102 H102       24.2109   -4.4649   -1.8404 H         1 UNK         0.0786 
    103 H103       24.7645   -3.9617   -3.4343 H         1 UNK         0.0786 
    104 H104       26.9020   -3.2584   -2.3011 H         1 UNK         0.2977 
    105 H105       26.9249   -0.7688   -5.2277 H         1 UNK         0.3127 
    106 H106       29.4513    0.0606   -6.0370 H         1 UNK         0.0770 
    107 H107       27.3632    1.6134   -4.4149 H         1 UNK         0.0814 
    108 H108       29.0888    1.9554   -4.4498 H         1 UNK         0.0814 
    109 H109       28.5132    0.4428   -3.7693 H         1 UNK         0.0814 
    110 H110       26.3071    1.6039   -6.8403 H         1 UNK         0.2983 
    111 H111       27.3886    3.7683   -8.3356 H         1 UNK         0.0947 
    112 H112       25.0424    3.9804   -9.1900 H         1 UNK         0.0806 
    113 H113       25.0708    3.7504   -7.4487 H         1 UNK         0.0806 
    114 H114       24.6440    2.4078   -8.5076 H         1 UNK         0.0806 
    115 H115       26.7243    0.4203   -9.2682 H         1 UNK         0.3000 
    116 H116       26.9974    0.9166  -12.1418 H         1 UNK         0.0850 
    117 H117       26.7889   -1.5612  -12.2976 H         1 UNK         0.0810 
    118 H118       25.4874   -0.8752  -11.3373 H         1 UNK         0.0810 
    119 H119       26.8274   -1.6962  -10.5448 H         1 UNK         0.0810 
    120 H120       28.9354   -0.6402   -9.5391 H         1 UNK         0.3040 
    121 H121       31.1455   -1.2771  -11.2636 H         1 UNK         0.0766 
    122 H122       32.2328   -1.9509   -9.0999 H         1 UNK         0.0812 
    123 H123       30.6217   -2.6244   -9.2781 H         1 UNK         0.0812 
    124 H124       30.8897   -1.2438   -8.2102 H         1 UNK         0.0812 
    125 H125       30.4475    1.5070   -9.1857 H         1 UNK         0.3205 
    126 H126       31.4656    3.3834   -8.6538 H         1 UNK         0.0754 
    127 H127       33.0499    4.4955  -10.1779 H         1 UNK         0.0769 
    128 H128       31.7339    3.7958  -11.1074 H         1 UNK         0.0769 
    129 H129       33.3106    3.0082  -11.0742 H         1 UNK         0.0769 
    130 H130       32.0208    1.3180   -7.1292 H         1 UNK         0.2981 
    131 H131       34.7772    0.6320   -6.8985 H         1 UNK         0.0541 
    132 H132       33.3176    3.5303   -5.7392 H         1 UNK         0.3459 
    133 H133       34.5430    3.8838   -4.5462 H         1 UNK         0.3459 
    134 H134       34.1003   -0.7228   -4.9716 H         1 UNK         0.0612 
    135 H135       33.0419   -0.9837   -6.3269 H         1 UNK         0.0612 
    136 H136       32.9433   -1.4022   -3.0384 H         1 UNK         0.0624 
    137 H137       31.4287   -0.7994   -2.4219 H         1 UNK         0.0624 
@<TRIPOS>BOND
     1    1    2 1    
     2    1   72 1    
     3    1   73 1    
     4    1   74 1    
     5    2    3 2    
     6    2    4 am   BACKBONE|DICT|INTERRES
     7    4    5 1    
     8    4   75 1    
     9    5    6 1    
    10    5   35 1    
    11    5   76 1    
    12    6    7 1    
    13    6   77 1    
    14    6   78 1    
    15    7    8 1    
    16    8    9 1    
    17    8   79 1    
    18    8   80 1    
    19    9   10 ar   
    20    9   14 ar   
    21   10   11 ar   
    22   10   81 1    
    23   11   12 ar   
    24   11   71 1    
    25   12   13 ar   
    26   12   82 1    
    27   13   14 ar   
    28   13   15 1    
    29   14   83 1    
    30   15   16 1    
    31   15   84 1    
    32   15   85 1    
    33   16   17 1    
    34   17   18 1    
    35   17   86 1    
    36   17   87 1    
    37   18   19 1    
    38   18   37 1    
    39   18   88 1    
    40   19   20 am   BACKBONE|DICT|INTERRES
    41   19   89 1    
    42   20   21 2    
    43   20   22 1    
    44   22   23 1    
    45   22   24 1    
    46   22   90 1    
    47   23   91 1    
    48   23   92 1    
    49   23   93 1    
    50   24   25 am   BACKBONE|DICT|INTERRES
    51   24   94 1    
    52   25   26 2    
    53   25   27 1    
    54   27   28 1    
    55   27   29 1    
    56   27   95 1    
    57   28   96 1    
    58   28   97 1    
    59   28   98 1    
    60   29   30 am   BACKBONE|DICT|INTERRES
    61   29   99 1    
    62   30   31 2    
    63   30   32 1    
    64   32   33 1    
    65   32   34 1    
    66   32  100 1    
    67   33  101 1    
    68   33  102 1    
    69   33  103 1    
    70   34   35 am   BACKBONE|DICT|INTERRES
    71   34  104 1    
    72   35   36 2    
    73   37   38 2    
    74   37   39 am   BACKBONE|DICT|INTERRES
    75   39   40 1    
    76   39  105 1    
    77   40   41 1    
    78   40   42 1    
    79   40  106 1    
    80   41  107 1    
    81   41  108 1    
    82   41  109 1    
    83   42   43 2    
    84   42   44 am   BACKBONE|DICT|INTERRES
    85   44   45 1    
    86   44  110 1    
    87   45   46 1    
    88   45   47 1    
    89   45  111 1    
    90   46  112 1    
    91   46  113 1    
    92   46  114 1    
    93   47   48 2    
    94   47   49 am   BACKBONE|DICT|INTERRES
    95   49   50 1    
    96   49  115 1    
    97   50   51 1    
    98   50   52 1    
    99   50  116 1    
   100   51  117 1    
   101   51  118 1    
   102   51  119 1    
   103   52   53 2    
   104   52   54 am   BACKBONE|DICT|INTERRES
   105   54   55 1    
   106   54  120 1    
   107   55   56 1    
   108   55   57 1    
   109   55  121 1    
   110   56  122 1    
   111   56  123 1    
   112   56  124 1    
   113   57   58 2    
   114   57   59 am   BACKBONE|DICT|INTERRES
   115   59   60 1    
   116   59  125 1    
   117   60   61 1    
   118   60   62 1    
   119   60  126 1    
   120   61  127 1    
   121   61  128 1    
   122   61  129 1    
   123   62   63 2    
   124   62   64 am   BACKBONE|DICT|INTERRES
   125   64   65 1    
   126   64  130 1    
   127   65   66 1    
   128   65   69 1    
   129   65  131 1    
   130   66   67 am   BACKBONE|DICT|INTERRES
   131   66   68 2    
   132   67  132 1    
   133   67  133 1    
   134   69   70 1    
   135   69  134 1    
   136   69  135 1    
   137   70   71 1    
   138   71  136 1    
   139   71  137 1    
@<TRIPOS>SUBSTRUCTURE
     1 UNK         1 GROUP             0       ****    0 ROOT    
