@<TRIPOS>MOLECULE
3R137
137   139    1
SMALL
USER_CHARGES


@<TRIPOS>ATOM
      1 CA         26.3301   -5.8048    2.3735 C.3       0 UNK        -0.2020 
      2 C          26.8989   -4.3940    2.3987 C.2       0 UNK         0.4855 
      3 O          27.4900   -3.9905    3.4007 O.2       0 UNK        -0.5197 
      4 N          26.7208   -3.6422    1.3077 N.am      1 UNK        -0.4892 
      5 CA         27.2234   -2.2750    1.1363 C.3       1 UNK         0.0835 
      6 C6         28.6752   -2.2184    0.5830 C.3       12 UNK        -0.0855 
      7 S7         29.0002   -3.2430   -0.8986 S.3       12 UNK        -0.2931 
      8 C8         28.8062   -2.0248   -2.2350 C.3       12 UNK         0.0378 
      9 C9         29.6256   -2.3961   -3.4607 C.ar      12 UNK        -0.0802 
     10 C10        30.7966   -1.6950   -3.7622 C.ar      12 UNK        -0.0944 
     11 C11        31.5334   -2.0017   -4.9101 C.ar      12 UNK        -0.0787 
     12 C12        31.0947   -3.0240   -5.7574 C.ar      12 UNK        -0.0862 
     13 C13        29.9304   -3.7402   -5.4598 C.ar      12 UNK        -0.0733 
     14 C14        29.2026   -3.4235   -4.3077 C.ar      12 UNK        -0.0832 
     15 C15        29.4705   -4.8693   -6.3720 C.3       12 UNK         0.0240 
     16 S16        28.6318   -4.2616   -7.8710 S.3       12 UNK        -0.2522 
     17 C17        27.1127   -3.5153   -7.1877 C.3       12 UNK        -0.0967 
     18 CA         26.8422   -2.0780   -7.6967 C.3       5 UNK         0.0660 
     19 N          25.4715   -1.6758   -7.3764 N.am      5 UNK        -0.4015 
     20 C          24.8906   -0.5008   -7.6566 C.2       4 UNK         0.4946 
     21 O          25.4097    0.3748   -8.3509 O.2       4 UNK        -0.5353 
     22 CA         23.5280   -0.2328   -6.9906 C.3       4 UNK         0.0277 
     23 CB         22.3898   -0.4460   -8.0009 C.3       4 UNK        -0.1981 
     24 N          23.2763   -1.0436   -5.7875 N.am      4 UNK        -0.4209 
     25 C          24.0182   -1.0211   -4.6695 C.2       3 UNK         0.4942 
     26 O          25.0227   -0.3209   -4.5222 O.2       3 UNK        -0.5208 
     27 CA         23.6236   -2.0028   -3.5647 C.3       3 UNK         0.0250 
     28 CB         24.3737   -3.3373   -3.7331 C.3       3 UNK        -0.1990 
     29 N          23.9555   -1.4130   -2.2715 N.am      3 UNK        -0.4232 
     30 C          23.2952   -1.6454   -1.1330 C.2       2 UNK         0.4993 
     31 O          22.3606   -2.4436   -1.0340 O.2       2 UNK        -0.5286 
     32 CA         23.7832   -0.8858    0.1097 C.3       2 UNK         0.0209 
     33 CB         22.6752   -0.7243    1.1679 C.3       2 UNK        -0.1931 
     34 N          24.9117   -1.5948    0.7109 N.am      2 UNK        -0.4546 
     35 C          26.1957   -1.4147    0.3743 C.2       1 UNK         0.5154 
     36 O          26.5589   -0.6081   -0.4832 O.2       1 UNK        -0.5181 
     37 C          27.8965   -1.0550   -7.2095 C.2       5 UNK         0.5014 
     38 O          28.8718   -0.8286   -7.9240 O.2       5 UNK        -0.5248 
     39 N          27.6429   -0.3850   -6.0711 N.am      6 UNK        -0.4434 
     40 CA         28.4848    0.6898   -5.5318 C.3       6 UNK         0.0363 
     41 CB         27.9282    1.1400   -4.1719 C.3       6 UNK        -0.1936 
     42 C          28.6284    1.9075   -6.4653 C.2       6 UNK         0.5081 
     43 O          29.6262    2.6219   -6.3705 O.2       6 UNK        -0.5248 
     44 N          27.6394    2.1270   -7.3417 N.am      7 UNK        -0.4718 
     45 CA         27.6945    3.1180   -8.4116 C.3       7 UNK         0.0273 
     46 CB         26.3209    3.7936   -8.5626 C.3       7 UNK        -0.1935 
     47 C          28.1295    2.4540   -9.7243 C.2       7 UNK         0.5018 
     48 O          29.0600    2.9412  -10.3663 O.2       7 UNK        -0.5186 
     49 N          27.4556    1.3561  -10.1003 N.am      8 UNK        -0.4240 
     50 CA         27.6043    0.6862  -11.3963 C.3       8 UNK         0.0235 
     51 CB         26.5230   -0.3950  -11.5480 C.3       8 UNK        -0.2000 
     52 C          29.0014    0.1038  -11.6724 C.2       8 UNK         0.4941 
     53 O          29.4302    0.1216  -12.8270 O.2       8 UNK        -0.5273 
     54 N          29.6967   -0.3815  -10.6336 N.am      9 UNK        -0.4262 
     55 CA         31.0644   -0.8995  -10.7424 C.3       9 UNK         0.0264 
     56 CB         31.3060   -1.9433   -9.6382 C.3       9 UNK        -0.1955 
     57 C          32.1381    0.2010  -10.6749 C.2       9 UNK         0.5031 
     58 O          33.3168   -0.1207  -10.8361 O.2       9 UNK        -0.5390 
     59 N          31.7462    1.4547  -10.3920 N.am      10 UNK        -0.4204 
     60 CA         32.5692    2.6558  -10.1681 C.3       10 UNK         0.0237 
     61 CB         33.3992    3.0175  -11.4154 C.3       10 UNK        -0.1985 
     62 C          33.4525    2.6076   -8.9047 C.2       10 UNK         0.4970 
     63 O          33.5673    3.6247   -8.2201 O.2       10 UNK        -0.4914 
     64 N          34.0395    1.4404   -8.6157 N.am      11 UNK        -0.4285 
     65 CA         34.8206    1.1007   -7.4145 C.3       11 UNK         0.1007 
     66 C          36.2006    1.8181   -7.3063 C.2       11 UNK         0.5703 
     67 N          36.7193    2.4192   -8.3708 N.am      11 UNK        -0.7361 
     68 O          36.8324    1.8022   -6.2521 O.2       11 UNK        -0.4986 
     69 C69        33.9899    1.1917   -6.1006 C.3       12 UNK        -0.0947 
     70 S70        32.4087    0.2798   -6.1751 S.3       12 UNK        -0.2240 
     71 C71        32.7986   -1.2204   -5.2283 C.3       12 UNK         0.0194 
     72 H72        27.1292   -6.5330    2.5099 H         1 UNK         0.0906 
     73 H73        25.8276   -6.0264    1.4321 H         1 UNK         0.0906 
     74 H74        25.6098   -5.9339    3.1809 H         1 UNK         0.0906 
     75 H75        26.2406   -4.0261    0.5047 H         1 UNK         0.3140 
     76 H76        27.2562   -1.8026    2.1211 H         1 UNK         0.1085 
     77 H77        28.9874   -1.1874    0.4079 H         1 UNK         0.0836 
     78 H78        29.3498   -2.5815    1.3598 H         1 UNK         0.0836 
     79 H79        29.0957   -1.0343   -1.8816 H         1 UNK         0.0731 
     80 H80        27.7517   -1.9584   -2.5068 H         1 UNK         0.0731 
     81 H81        31.1294   -0.8976   -3.1118 H         1 UNK         0.1312 
     82 H82        31.6558   -3.2606   -6.6510 H         1 UNK         0.1406 
     83 H83        28.3050   -3.9753   -4.0640 H         1 UNK         0.1631 
     84 H84        30.3345   -5.4636   -6.6727 H         1 UNK         0.0717 
     85 H85        28.8059   -5.5512   -5.8392 H         1 UNK         0.0717 
     86 H86        26.2914   -4.1700   -7.4841 H         1 UNK         0.0934 
     87 H87        27.1237   -3.5397   -6.0986 H         1 UNK         0.0934 
     88 H88        26.9054   -2.0986   -8.7845 H         1 UNK         0.0739 
     89 H89        24.9423   -2.3237   -6.8137 H         1 UNK         0.3093 
     90 H90        23.5250    0.8160   -6.6861 H         1 UNK         0.0818 
     91 H91        21.4253   -0.1626   -7.5791 H         1 UNK         0.0819 
     92 H92        22.5412    0.1637   -8.8931 H         1 UNK         0.0819 
     93 H93        22.3243   -1.4855   -8.3245 H         1 UNK         0.0819 
     94 H94        22.4747   -1.6582   -5.8227 H         1 UNK         0.3041 
     95 H95        22.5467   -2.1769   -3.6231 H         1 UNK         0.0784 
     96 H96        24.1432   -3.8024   -4.6923 H         1 UNK         0.0793 
     97 H97        25.4550   -3.2003   -3.6839 H         1 UNK         0.0793 
     98 H98        24.0935   -4.0486   -2.9559 H         1 UNK         0.0793 
     99 H99        24.7196   -0.7465   -2.2895 H         1 UNK         0.3024 
    100 H100       24.0928    0.1152   -0.2012 H         1 UNK         0.1171 
    101 H101       23.0200   -0.1281    2.0129 H         1 UNK         0.0786 
    102 H102       21.8062   -0.2164    0.7473 H         1 UNK         0.0786 
    103 H103       22.3354   -1.6861    1.5547 H         1 UNK         0.0786 
    104 H104       24.6904   -2.2966    1.4033 H         1 UNK         0.2977 
    105 H105       26.7819   -0.5687   -5.5661 H         1 UNK         0.3127 
    106 H106       29.4818    0.2740   -5.3799 H         1 UNK         0.0770 
    107 H107       26.9587    1.6285   -4.2774 H         1 UNK         0.0814 
    108 H108       28.6018    1.8511   -3.6923 H         1 UNK         0.0814 
    109 H109       27.8010    0.3015   -3.4900 H         1 UNK         0.0814 
    110 H110       26.8665    1.4716   -7.3748 H         1 UNK         0.2983 
    111 H111       28.4238    3.8954   -8.1723 H         1 UNK         0.0947 
    112 H112       26.3374    4.5334   -9.3640 H         1 UNK         0.0806 
    113 H113       26.0361    4.3139   -7.6480 H         1 UNK         0.0806 
    114 H114       25.5328    3.0769   -8.7964 H         1 UNK         0.0806 
    115 H115       26.7114    1.0137   -9.4954 H         1 UNK         0.3000 
    116 H116       27.4223    1.4441  -12.1614 H         1 UNK         0.0850 
    117 H117       25.5234    0.0183  -11.4111 H         1 UNK         0.0810 
    118 H118       26.6537   -1.2011  -10.8286 H         1 UNK         0.0810 
    119 H119       26.5560   -0.8408  -12.5431 H         1 UNK         0.0810 
    120 H120       29.2845   -0.3910   -9.7011 H         1 UNK         0.3040 
    121 H121       31.1783   -1.4036  -11.7044 H         1 UNK         0.0766 
    122 H122       30.5472   -2.7249   -9.6574 H         1 UNK         0.0812 
    123 H123       31.2977   -1.4910   -8.6456 H         1 UNK         0.0812 
    124 H124       32.2743   -2.4294   -9.7627 H         1 UNK         0.0812 
    125 H125       30.7502    1.6127  -10.2844 H         1 UNK         0.3205 
    126 H126       31.8538    3.4645  -10.0093 H         1 UNK         0.0754 
    127 H127       34.1568    2.2656  -11.6376 H         1 UNK         0.0769 
    128 H128       33.9179    3.9667  -11.2741 H         1 UNK         0.0769 
    129 H129       32.7640    3.1234  -12.2949 H         1 UNK         0.0769 
    130 H130       33.9157    0.6902   -9.2910 H         1 UNK         0.2981 
    131 H131       35.0794    0.0497   -7.5454 H         1 UNK         0.0541 
    132 H132       37.6173    2.8704   -8.2957 H         1 UNK         0.3459 
    133 H133       36.2171    2.4306   -9.2438 H         1 UNK         0.3459 
    134 H134       33.7614    2.2333   -5.8700 H         1 UNK         0.0612 
    135 H135       34.5703    0.8210   -5.2544 H         1 UNK         0.0612 
    136 H136       33.3040   -0.9491   -4.3002 H         1 UNK         0.0624 
    137 H137       33.4975   -1.8352   -5.7974 H         1 UNK         0.0624 
@<TRIPOS>BOND
     1    1    2 1    
     2    1   72 1    
     3    1   73 1    
     4    1   74 1    
     5    2    3 2    
     6    2    4 am   BACKBONE|DICT|INTERRES
     7    4    5 1    
     8    4   75 1    
     9    5    6 1    
    10    5   35 1    
    11    5   76 1    
    12    6    7 1    
    13    6   77 1    
    14    6   78 1    
    15    7    8 1    
    16    8    9 1    
    17    8   79 1    
    18    8   80 1    
    19    9   10 ar   
    20    9   14 ar   
    21   10   11 ar   
    22   10   81 1    
    23   11   12 ar   
    24   11   71 1    
    25   12   13 ar   
    26   12   82 1    
    27   13   14 ar   
    28   13   15 1    
    29   14   83 1    
    30   15   16 1    
    31   15   84 1    
    32   15   85 1    
    33   16   17 1    
    34   17   18 1    
    35   17   86 1    
    36   17   87 1    
    37   18   19 1    
    38   18   37 1    
    39   18   88 1    
    40   19   20 am   BACKBONE|DICT|INTERRES
    41   19   89 1    
    42   20   21 2    
    43   20   22 1    
    44   22   23 1    
    45   22   24 1    
    46   22   90 1    
    47   23   91 1    
    48   23   92 1    
    49   23   93 1    
    50   24   25 am   BACKBONE|DICT|INTERRES
    51   24   94 1    
    52   25   26 2    
    53   25   27 1    
    54   27   28 1    
    55   27   29 1    
    56   27   95 1    
    57   28   96 1    
    58   28   97 1    
    59   28   98 1    
    60   29   30 am   BACKBONE|DICT|INTERRES
    61   29   99 1    
    62   30   31 2    
    63   30   32 1    
    64   32   33 1    
    65   32   34 1    
    66   32  100 1    
    67   33  101 1    
    68   33  102 1    
    69   33  103 1    
    70   34   35 am   BACKBONE|DICT|INTERRES
    71   34  104 1    
    72   35   36 2    
    73   37   38 2    
    74   37   39 am   BACKBONE|DICT|INTERRES
    75   39   40 1    
    76   39  105 1    
    77   40   41 1    
    78   40   42 1    
    79   40  106 1    
    80   41  107 1    
    81   41  108 1    
    82   41  109 1    
    83   42   43 2    
    84   42   44 am   BACKBONE|DICT|INTERRES
    85   44   45 1    
    86   44  110 1    
    87   45   46 1    
    88   45   47 1    
    89   45  111 1    
    90   46  112 1    
    91   46  113 1    
    92   46  114 1    
    93   47   48 2    
    94   47   49 am   BACKBONE|DICT|INTERRES
    95   49   50 1    
    96   49  115 1    
    97   50   51 1    
    98   50   52 1    
    99   50  116 1    
   100   51  117 1    
   101   51  118 1    
   102   51  119 1    
   103   52   53 2    
   104   52   54 am   BACKBONE|DICT|INTERRES
   105   54   55 1    
   106   54  120 1    
   107   55   56 1    
   108   55   57 1    
   109   55  121 1    
   110   56  122 1    
   111   56  123 1    
   112   56  124 1    
   113   57   58 2    
   114   57   59 am   BACKBONE|DICT|INTERRES
   115   59   60 1    
   116   59  125 1    
   117   60   61 1    
   118   60   62 1    
   119   60  126 1    
   120   61  127 1    
   121   61  128 1    
   122   61  129 1    
   123   62   63 2    
   124   62   64 am   BACKBONE|DICT|INTERRES
   125   64   65 1    
   126   64  130 1    
   127   65   66 1    
   128   65   69 1    
   129   65  131 1    
   130   66   67 am   BACKBONE|DICT|INTERRES
   131   66   68 2    
   132   67  132 1    
   133   67  133 1    
   134   69   70 1    
   135   69  134 1    
   136   69  135 1    
   137   70   71 1    
   138   71  136 1    
   139   71  137 1    
@<TRIPOS>SUBSTRUCTURE
     1 UNK         1 GROUP             0       ****    0 ROOT    
