@<TRIPOS>MOLECULE
3R137
137   139    1
SMALL
USER_CHARGES


@<TRIPOS>ATOM
      1 CA         26.4626   -3.2288    2.8718 C.3       0 UNK        -0.2020 
      2 C          27.0206   -2.6383    1.5858 C.2       0 UNK         0.4855 
      3 O          27.5133   -1.5108    1.5939 O.2       0 UNK        -0.5197 
      4 N          26.9328   -3.3847    0.4772 N.am      1 UNK        -0.4892 
      5 CA         27.4481   -3.0028   -0.8473 C.3       1 UNK         0.0835 
      6 C6         27.9726   -4.2328   -1.6324 C.3       12 UNK        -0.0855 
      7 S7         29.5654   -4.7838   -0.9303 S.3       12 UNK        -0.2931 
      8 C8         30.6358   -4.9139   -2.4074 C.3       12 UNK         0.0378 
      9 C9         30.7625   -3.6547   -3.2701 C.ar      12 UNK        -0.0802 
     10 C10        31.0637   -3.8116   -4.6250 C.ar      12 UNK        -0.0944 
     11 C11        31.2123   -2.7036   -5.4623 C.ar      12 UNK        -0.0787 
     12 C12        31.0167   -1.4188   -4.9461 C.ar      12 UNK        -0.0862 
     13 C13        30.7144   -1.2379   -3.5927 C.ar      12 UNK        -0.0733 
     14 C14        30.6155   -2.3588   -2.7568 C.ar      12 UNK        -0.0832 
     15 C15        30.5328    0.1674   -3.0257 C.3       12 UNK         0.0240 
     16 S16        28.9216    0.3663   -2.1966 S.3       12 UNK        -0.2522 
     17 C17        28.0189    1.6066   -3.1877 C.3       12 UNK        -0.0967 
     18 CA         27.8318    1.2965   -4.6962 C.3       5 UNK         0.0660 
     19 N          27.3223   -0.0492   -4.9742 N.am      5 UNK        -0.4015 
     20 C          27.2633   -0.5929   -6.2006 C.2       4 UNK         0.4946 
     21 O          27.6415   -0.0195   -7.2252 O.2       4 UNK        -0.5353 
     22 CA         26.6601   -1.9997   -6.3129 C.3       4 UNK         0.0277 
     23 CB         27.7070   -3.0691   -5.9685 C.3       4 UNK        -0.1981 
     24 N          25.5016   -2.1498   -5.4329 N.am      4 UNK        -0.4209 
     25 C          24.2386   -1.8796   -5.7884 C.2       3 UNK         0.4942 
     26 O          23.9078   -1.5281   -6.9200 O.2       3 UNK        -0.5208 
     27 CA         23.1502   -2.0176   -4.7067 C.3       3 UNK         0.0250 
     28 CB         22.5182   -3.4178   -4.7588 C.3       3 UNK        -0.1990 
     29 N          23.6163   -1.7490   -3.3432 N.am      3 UNK        -0.4232 
     30 C          24.0850   -0.5682   -2.9185 C.2       2 UNK         0.4993 
     31 O          24.1997    0.4253   -3.6340 O.2       2 UNK        -0.5286 
     32 CA         24.5672   -0.4951   -1.4628 C.3       2 UNK         0.0209 
     33 CB         23.3749   -0.3397   -0.5051 C.3       2 UNK        -0.1931 
     34 N          25.4186   -1.6037   -1.0101 N.am      2 UNK        -0.4546 
     35 C          26.4608   -2.1411   -1.6638 C.2       1 UNK         0.5154 
     36 O          26.6853   -1.9468   -2.8592 O.2       1 UNK        -0.5181 
     37 C          26.9588    2.3852   -5.3555 C.2       5 UNK         0.5014 
     38 O          27.5034    3.2740   -6.0108 O.2       5 UNK        -0.5248 
     39 N          25.6269    2.2900   -5.2043 N.am      6 UNK        -0.4434 
     40 CA         24.6599    3.2330   -5.7820 C.3       6 UNK         0.0363 
     41 CB         23.2764    3.0181   -5.1486 C.3       6 UNK        -0.1936 
     42 C          24.5626    3.1441   -7.3138 C.2       6 UNK         0.5081 
     43 O          24.2515    4.1464   -7.9573 O.2       6 UNK        -0.5248 
     44 N          24.8564    1.9628   -7.8743 N.am      7 UNK        -0.4718 
     45 CA         24.9811    1.7382   -9.3171 C.3       7 UNK         0.0273 
     46 CB         24.8411    0.2348   -9.6059 C.3       7 UNK        -0.1935 
     47 C          26.3023    2.2758   -9.8993 C.2       7 UNK         0.5018 
     48 O          26.4278    2.3351  -11.1231 O.2       7 UNK        -0.5186 
     49 N          27.2551    2.6400   -9.0254 N.am      8 UNK        -0.4240 
     50 CA         28.6149    3.0984   -9.3198 C.3       8 UNK         0.0235 
     51 CB         28.5951    4.4722  -10.0240 C.3       8 UNK        -0.2000 
     52 C          29.4353    2.0360  -10.0733 C.2       8 UNK         0.4941 
     53 O          30.1196    2.3614  -11.0466 O.2       8 UNK        -0.5273 
     54 N          29.3391    0.7778   -9.6169 N.am      9 UNK        -0.4262 
     55 CA         30.0910   -0.3561  -10.1568 C.3       9 UNK         0.0264 
     56 CB         29.5537   -1.6552   -9.5386 C.3       9 UNK        -0.1955 
     57 C          31.6057   -0.1945   -9.9268 C.2       9 UNK         0.5031 
     58 O          32.0203    0.2909   -8.8700 O.2       9 UNK        -0.5390 
     59 N          32.4031   -0.5953  -10.9246 N.am      10 UNK        -0.4204 
     60 CA         33.8450   -0.3436  -11.0267 C.3       10 UNK         0.0237 
     61 CB         34.2550   -0.4366  -12.5096 C.3       10 UNK        -0.1985 
     62 C          34.7164   -1.2337  -10.1148 C.2       10 UNK         0.4970 
     63 O          35.6609   -1.8636  -10.5953 O.2       10 UNK        -0.4914 
     64 N          34.4034   -1.2545   -8.8156 N.am      11 UNK        -0.4285 
     65 CA         35.2101   -1.9076   -7.7698 C.3       11 UNK         0.1007 
     66 C          36.3872   -1.0332   -7.2465 C.2       11 UNK         0.5703 
     67 N          36.4970    0.2370   -7.6200 N.am      11 UNK        -0.7361 
     68 O          37.2291   -1.5224   -6.4969 O.2       11 UNK        -0.4986 
     69 C69        34.3327   -2.4245   -6.6019 C.3       12 UNK        -0.0947 
     70 S70        33.1788   -3.7282   -7.1421 S.3       12 UNK        -0.2240 
     71 C71        31.5724   -2.9039   -6.9272 C.3       12 UNK         0.0194 
     72 H72        25.6725   -2.5908    3.2669 H         1 UNK         0.0906 
     73 H73        26.0491   -4.2255    2.7186 H         1 UNK         0.0906 
     74 H74        27.2492   -3.3009    3.6225 H         1 UNK         0.0906 
     75 H75        26.5127   -4.3025    0.5314 H         1 UNK         0.3140 
     76 H76        28.2958   -2.3316   -0.6957 H         1 UNK         0.1085 
     77 H77        28.1182   -4.0084   -2.6900 H         1 UNK         0.0836 
     78 H78        27.2559   -5.0548   -1.6001 H         1 UNK         0.0836 
     79 H79        30.2578   -5.7375   -3.0156 H         1 UNK         0.0731 
     80 H80        31.6346   -5.2077   -2.0824 H         1 UNK         0.0731 
     81 H81        31.2010   -4.8038   -5.0332 H         1 UNK         0.1312 
     82 H82        31.1131   -0.5598   -5.5965 H         1 UNK         0.1406 
     83 H83        30.4120   -2.2147   -1.7058 H         1 UNK         0.1631 
     84 H84        30.6563    0.9270   -3.7981 H         1 UNK         0.0717 
     85 H85        31.3216    0.3502   -2.2950 H         1 UNK         0.0717 
     86 H86        27.0458    1.7320   -2.7085 H         1 UNK         0.0934 
     87 H87        28.5325    2.5625   -3.0662 H         1 UNK         0.0934 
     88 H88        28.8134    1.3562   -5.1700 H         1 UNK         0.0739 
     89 H89        27.0474   -0.6106   -4.1721 H         1 UNK         0.3093 
     90 H90        26.3534   -2.1533   -7.3498 H         1 UNK         0.0818 
     91 H91        27.2854   -4.0726   -6.0235 H         1 UNK         0.0819 
     92 H92        28.5396   -3.0301   -6.6695 H         1 UNK         0.0819 
     93 H93        28.1175   -2.9315   -4.9674 H         1 UNK         0.0819 
     94 H94        25.7039   -2.3513   -4.4579 H         1 UNK         0.3041 
     95 H95        22.3743   -1.2843   -4.9370 H         1 UNK         0.0784 
     96 H96        22.1366   -3.6365   -5.7573 H         1 UNK         0.0793 
     97 H97        23.2400   -4.1963   -4.5082 H         1 UNK         0.0793 
     98 H98        21.6786   -3.5012   -4.0684 H         1 UNK         0.0793 
     99 H99        23.5904   -2.5165   -2.6877 H         1 UNK         0.3024 
    100 H100       25.1763    0.4080   -1.3856 H         1 UNK         0.1171 
    101 H101       23.7069   -0.1266    0.5112 H         1 UNK         0.0786 
    102 H102       22.7310    0.4861   -0.8118 H         1 UNK         0.0786 
    103 H103       22.7598   -1.2399   -0.4754 H         1 UNK         0.0786 
    104 H104       25.3376   -1.8483   -0.0339 H         1 UNK         0.2977 
    105 H105       25.2329    1.5324   -4.6457 H         1 UNK         0.3127 
    106 H106       24.9915    4.2436   -5.5339 H         1 UNK         0.0770 
    107 H107       22.8786    2.0283   -5.3765 H         1 UNK         0.0814 
    108 H108       22.5588    3.7509   -5.5203 H         1 UNK         0.0814 
    109 H109       23.3146    3.1228   -4.0642 H         1 UNK         0.0814 
    110 H110       25.0918    1.1864   -7.2719 H         1 UNK         0.2983 
    111 H111       24.1675    2.2610   -9.8248 H         1 UNK         0.0947 
    112 H112       25.6190   -0.3465   -9.1099 H         1 UNK         0.0806 
    113 H113       24.9144    0.0314  -10.6750 H         1 UNK         0.0806 
    114 H114       23.8747   -0.1436   -9.2727 H         1 UNK         0.0806 
    115 H115       27.0452    2.5444   -8.0390 H         1 UNK         0.3000 
    116 H116       29.1066    3.2308   -8.3547 H         1 UNK         0.0850 
    117 H117       28.0217    5.2016   -9.4519 H         1 UNK         0.0810 
    118 H118       28.1607    4.4113  -11.0223 H         1 UNK         0.0810 
    119 H119       29.6054    4.8683  -10.1335 H         1 UNK         0.0810 
    120 H120       28.7600    0.5933   -8.8020 H         1 UNK         0.3040 
    121 H121       29.9088   -0.3903  -11.2331 H         1 UNK         0.0766 
    122 H122       30.1569   -2.5163   -9.8292 H         1 UNK         0.0812 
    123 H123       28.5312   -1.8495   -9.8631 H         1 UNK         0.0812 
    124 H124       29.5440   -1.6034   -8.4508 H         1 UNK         0.0812 
    125 H125       31.9762   -1.0300  -11.7303 H         1 UNK         0.3205 
    126 H126       34.0248    0.6855  -10.7080 H         1 UNK         0.0754 
    127 H127       35.3080   -0.1843  -12.6434 H         1 UNK         0.0769 
    128 H128       33.6815    0.2572  -13.1249 H         1 UNK         0.0769 
    129 H129       34.1065   -1.4413  -12.9074 H         1 UNK         0.0769 
    130 H130       33.6022   -0.7079   -8.5117 H         1 UNK         0.2981 
    131 H131       35.6884   -2.7832   -8.2129 H         1 UNK         0.0541 
    132 H132       37.2693    0.7861   -7.2768 H         1 UNK         0.3459 
    133 H133       35.8133    0.6533   -8.2307 H         1 UNK         0.3459 
    134 H134       34.9511   -2.8581   -5.8139 H         1 UNK         0.0612 
    135 H135       33.7871   -1.6004   -6.1396 H         1 UNK         0.0612 
    136 H136       31.6007   -1.9503   -7.4519 H         1 UNK         0.0624 
    137 H137       30.8035   -3.5101   -7.4066 H         1 UNK         0.0624 
@<TRIPOS>BOND
     1    1    2 1    
     2    1   72 1    
     3    1   73 1    
     4    1   74 1    
     5    2    3 2    
     6    2    4 am   BACKBONE|DICT|INTERRES
     7    4    5 1    
     8    4   75 1    
     9    5    6 1    
    10    5   35 1    
    11    5   76 1    
    12    6    7 1    
    13    6   77 1    
    14    6   78 1    
    15    7    8 1    
    16    8    9 1    
    17    8   79 1    
    18    8   80 1    
    19    9   10 ar   
    20    9   14 ar   
    21   10   11 ar   
    22   10   81 1    
    23   11   12 ar   
    24   11   71 1    
    25   12   13 ar   
    26   12   82 1    
    27   13   14 ar   
    28   13   15 1    
    29   14   83 1    
    30   15   16 1    
    31   15   84 1    
    32   15   85 1    
    33   16   17 1    
    34   17   18 1    
    35   17   86 1    
    36   17   87 1    
    37   18   19 1    
    38   18   37 1    
    39   18   88 1    
    40   19   20 am   BACKBONE|DICT|INTERRES
    41   19   89 1    
    42   20   21 2    
    43   20   22 1    
    44   22   23 1    
    45   22   24 1    
    46   22   90 1    
    47   23   91 1    
    48   23   92 1    
    49   23   93 1    
    50   24   25 am   BACKBONE|DICT|INTERRES
    51   24   94 1    
    52   25   26 2    
    53   25   27 1    
    54   27   28 1    
    55   27   29 1    
    56   27   95 1    
    57   28   96 1    
    58   28   97 1    
    59   28   98 1    
    60   29   30 am   BACKBONE|DICT|INTERRES
    61   29   99 1    
    62   30   31 2    
    63   30   32 1    
    64   32   33 1    
    65   32   34 1    
    66   32  100 1    
    67   33  101 1    
    68   33  102 1    
    69   33  103 1    
    70   34   35 am   BACKBONE|DICT|INTERRES
    71   34  104 1    
    72   35   36 2    
    73   37   38 2    
    74   37   39 am   BACKBONE|DICT|INTERRES
    75   39   40 1    
    76   39  105 1    
    77   40   41 1    
    78   40   42 1    
    79   40  106 1    
    80   41  107 1    
    81   41  108 1    
    82   41  109 1    
    83   42   43 2    
    84   42   44 am   BACKBONE|DICT|INTERRES
    85   44   45 1    
    86   44  110 1    
    87   45   46 1    
    88   45   47 1    
    89   45  111 1    
    90   46  112 1    
    91   46  113 1    
    92   46  114 1    
    93   47   48 2    
    94   47   49 am   BACKBONE|DICT|INTERRES
    95   49   50 1    
    96   49  115 1    
    97   50   51 1    
    98   50   52 1    
    99   50  116 1    
   100   51  117 1    
   101   51  118 1    
   102   51  119 1    
   103   52   53 2    
   104   52   54 am   BACKBONE|DICT|INTERRES
   105   54   55 1    
   106   54  120 1    
   107   55   56 1    
   108   55   57 1    
   109   55  121 1    
   110   56  122 1    
   111   56  123 1    
   112   56  124 1    
   113   57   58 2    
   114   57   59 am   BACKBONE|DICT|INTERRES
   115   59   60 1    
   116   59  125 1    
   117   60   61 1    
   118   60   62 1    
   119   60  126 1    
   120   61  127 1    
   121   61  128 1    
   122   61  129 1    
   123   62   63 2    
   124   62   64 am   BACKBONE|DICT|INTERRES
   125   64   65 1    
   126   64  130 1    
   127   65   66 1    
   128   65   69 1    
   129   65  131 1    
   130   66   67 am   BACKBONE|DICT|INTERRES
   131   66   68 2    
   132   67  132 1    
   133   67  133 1    
   134   69   70 1    
   135   69  134 1    
   136   69  135 1    
   137   70   71 1    
   138   71  136 1    
   139   71  137 1    
@<TRIPOS>SUBSTRUCTURE
     1 UNK         1 GROUP             0       ****    0 ROOT    
