@<TRIPOS>MOLECULE
3R137
137   139    1
SMALL
USER_CHARGES


@<TRIPOS>ATOM
      1 CA         26.1118   -6.3015   -5.1937 C.3       0 UNK        -0.2020 
      2 C          26.3789   -5.5119   -3.9216 C.2       0 UNK         0.4855 
      3 O          25.4380   -5.1474   -3.2162 O.2       0 UNK        -0.5197 
      4 N          27.6575   -5.2344   -3.6350 N.am      1 UNK        -0.4892 
      5 CA         28.1500   -4.4797   -2.4753 C.3       1 UNK         0.0835 
      6 C6         29.7013   -4.4616   -2.4622 C.3       12 UNK        -0.0855 
      7 S7         30.4407   -4.5159   -0.7931 S.3       12 UNK        -0.2931 
      8 C8         30.2475   -2.8117   -0.1551 C.3       12 UNK         0.0378 
      9 C9         30.8028   -1.6830   -1.0267 C.ar      12 UNK        -0.0802 
     10 C10        31.7899   -1.8854   -1.9995 C.ar      12 UNK        -0.0944 
     11 C11        32.2173   -0.8325   -2.8134 C.ar      12 UNK        -0.0787 
     12 C12        31.7031    0.4511   -2.6096 C.ar      12 UNK        -0.0862 
     13 C13        30.7430    0.6765   -1.6185 C.ar      12 UNK        -0.0733 
     14 C14        30.2974   -0.3937   -0.8373 C.ar      12 UNK        -0.0832 
     15 C15        30.1638    2.0679   -1.3935 C.3       12 UNK         0.0240 
     16 S16        29.3110    2.7429   -2.8570 S.3       12 UNK        -0.2522 
     17 C17        28.1258    1.4253   -3.3015 C.3       12 UNK        -0.0967 
     18 CA         28.0780    1.2319   -4.8383 C.3       5 UNK         0.0660 
     19 N          27.8627   -0.1618   -5.2344 N.am      5 UNK        -0.4015 
     20 C          27.8871   -0.6183   -6.4959 C.2       4 UNK         0.4946 
     21 O          28.2007    0.0672   -7.4690 O.2       4 UNK        -0.5353 
     22 CA         27.4241   -2.0652   -6.7206 C.3       4 UNK         0.0277 
     23 CB         28.5778   -3.0586   -6.5070 C.3       4 UNK        -0.1981 
     24 N          26.2885   -2.3967   -5.8554 N.am      4 UNK        -0.4209 
     25 C          25.0431   -1.9334   -6.0484 C.2       3 UNK         0.4942 
     26 O          24.7071   -1.2791   -7.0341 O.2       3 UNK        -0.5208 
     27 CA         24.0026   -2.2044   -4.9473 C.3       3 UNK         0.0250 
     28 CB         23.1916   -3.4724   -5.2559 C.3       3 UNK        -0.1990 
     29 N          24.5989   -2.3019   -3.6123 N.am      3 UNK        -0.4232 
     30 C          25.0853   -1.2501   -2.9350 C.2       2 UNK         0.4993 
     31 O          25.0434   -0.0928   -3.3536 O.2       2 UNK        -0.5286 
     32 CA         25.8016   -1.5411   -1.6020 C.3       2 UNK         0.0209 
     33 CB         24.7969   -1.5594   -0.4400 C.3       2 UNK        -0.1931 
     34 N          26.5650   -2.7950   -1.6142 N.am      2 UNK        -0.4546 
     35 C          27.5635   -3.0520   -2.4699 C.2       1 UNK         0.5154 
     36 O          27.9646   -2.2288   -3.2938 O.2       1 UNK        -0.5181 
     37 C          27.0558    2.1754   -5.5015 C.2       5 UNK         0.5014 
     38 O          27.4576    3.1452   -6.1478 O.2       5 UNK        -0.5248 
     39 N          25.7633    1.8304   -5.3852 N.am      6 UNK        -0.4434 
     40 CA         24.6335    2.5356   -6.0016 C.3       6 UNK         0.0363 
     41 CB         23.3179    1.8913   -5.5389 C.3       6 UNK        -0.1936 
     42 C          24.6872    2.5947   -7.5402 C.2       6 UNK         0.5081 
     43 O          24.1651    3.5447   -8.1226 O.2       6 UNK        -0.5248 
     44 N          25.3564    1.6207   -8.1709 N.am      7 UNK        -0.4718 
     45 CA         25.6512    1.5735   -9.6064 C.3       7 UNK         0.0273 
     46 CB         25.7500    0.1007  -10.0433 C.3       7 UNK        -0.1935 
     47 C          26.9113    2.3821   -9.9919 C.2       7 UNK         0.5018 
     48 O          27.5343    2.0769  -11.0095 O.2       7 UNK        -0.5186 
     49 N          27.2553    3.3984   -9.1860 N.am      8 UNK        -0.4240 
     50 CA         28.3985    4.3087   -9.3063 C.3       8 UNK         0.0235 
     51 CB         28.3258    5.1373  -10.6078 C.3       8 UNK        -0.2000 
     52 C          29.7422    3.5846   -9.1119 C.2       8 UNK         0.4941 
     53 O          30.6546    3.7502   -9.9240 O.2       8 UNK        -0.5273 
     54 N          29.8293    2.8083   -8.0206 N.am      9 UNK        -0.4262 
     55 CA         30.9886    2.0190   -7.5836 C.3       9 UNK         0.0264 
     56 CB         32.1338    2.9397   -7.1130 C.3       9 UNK        -0.1955 
     57 C          31.4342    0.9847   -8.6319 C.2       9 UNK         0.5031 
     58 O          32.6094    0.9354   -9.0030 O.2       9 UNK        -0.5390 
     59 N          30.4898    0.1407   -9.0657 N.am      10 UNK        -0.4204 
     60 CA         30.6878   -0.9639  -10.0116 C.3       10 UNK         0.0237 
     61 CB         29.3278   -1.3227  -10.6386 C.3       10 UNK        -0.1985 
     62 C          31.3759   -2.1835   -9.3588 C.2       10 UNK         0.4970 
     63 O          30.9282   -3.3173   -9.5384 O.2       10 UNK        -0.4914 
     64 N          32.4359   -1.9228   -8.5889 N.am      11 UNK        -0.4285 
     65 CA         33.1757   -2.8967   -7.7748 C.3       11 UNK         0.1007 
     66 C          34.3254   -3.6165   -8.5367 C.2       11 UNK         0.5703 
     67 N          34.6210   -3.2694   -9.7841 N.am      11 UNK        -0.7361 
     68 O          34.9540   -4.5196   -7.9897 O.2       11 UNK        -0.4986 
     69 C69        33.6798   -2.2455   -6.4589 C.3       12 UNK        -0.0947 
     70 S70        32.3090   -1.6001   -5.4437 S.3       12 UNK        -0.2240 
     71 C71        33.2010   -1.1013   -3.9397 C.3       12 UNK         0.0194 
     72 H72        25.3233   -7.0343   -5.0240 H         1 UNK         0.0906 
     73 H73        25.7921   -5.6340   -5.9932 H         1 UNK         0.0906 
     74 H74        26.9994   -6.8366   -5.5309 H         1 UNK         0.0906 
     75 H75        28.3738   -5.5570   -4.2697 H         1 UNK         0.3140 
     76 H76        27.7971   -5.0064   -1.5860 H         1 UNK         0.1085 
     77 H77        30.0814   -5.3569   -2.9570 H         1 UNK         0.0836 
     78 H78        30.1082   -3.6388   -3.0509 H         1 UNK         0.0836 
     79 H79        30.7361   -2.7590    0.8186 H         1 UNK         0.0731 
     80 H80        29.1862   -2.6414    0.0311 H         1 UNK         0.0731 
     81 H81        32.2028   -2.8712   -2.1596 H         1 UNK         0.1312 
     82 H82        32.0295    1.2696   -3.2367 H         1 UNK         0.1406 
     83 H83        29.5430   -0.2242   -0.0807 H         1 UNK         0.1631 
     84 H84        30.9711    2.7462   -1.1141 H         1 UNK         0.0717 
     85 H85        29.4634    2.0671   -0.5569 H         1 UNK         0.0717 
     86 H86        27.1470    1.6606   -2.8786 H         1 UNK         0.0934 
     87 H87        28.4269    0.4939   -2.8232 H         1 UNK         0.0934 
     88 H88        29.0571    1.4901   -5.2387 H         1 UNK         0.0739 
     89 H89        27.6960   -0.8307   -4.4861 H         1 UNK         0.3093 
     90 H90        27.0985   -2.1520   -7.7595 H         1 UNK         0.0818 
     91 H91        28.9927   -3.0050   -5.5011 H         1 UNK         0.0819 
     92 H92        28.2579   -4.0846   -6.6875 H         1 UNK         0.0819 
     93 H93        29.3958   -2.8505   -7.1967 H         1 UNK         0.0819 
     94 H94        26.5017   -2.8670   -4.9875 H         1 UNK         0.3041 
     95 H95        23.3073   -1.3626   -4.9420 H         1 UNK         0.0784 
     96 H96        22.7009   -3.3924   -6.2270 H         1 UNK         0.0793 
     97 H97        23.8178   -4.3629   -5.2818 H         1 UNK         0.0793 
     98 H98        22.4113   -3.6341   -4.5121 H         1 UNK         0.0793 
     99 H99        24.7161   -3.2349   -3.2274 H         1 UNK         0.3024 
    100 H100       26.5081   -0.7257   -1.4312 H         1 UNK         0.1171 
    101 H101       25.3020   -1.6699    0.5198 H         1 UNK         0.0786 
    102 H102       24.2301   -0.6280   -0.4004 H         1 UNK         0.0786 
    103 H103       24.0787   -2.3745   -0.5385 H         1 UNK         0.0786 
    104 H104       26.2424   -3.5315   -1.0024 H         1 UNK         0.2977 
    105 H105       25.5272    1.0397   -4.7879 H         1 UNK         0.3127 
    106 H106       24.6577    3.5643   -5.6363 H         1 UNK         0.0770 
    107 H107       23.2312    0.8630   -5.8899 H         1 UNK         0.0814 
    108 H108       22.4579    2.4402   -5.9250 H         1 UNK         0.0814 
    109 H109       23.2369    1.8842   -4.4517 H         1 UNK         0.0814 
    110 H110       25.7470    0.8715   -7.6140 H         1 UNK         0.2983 
    111 H111       24.8173    2.0231  -10.1497 H         1 UNK         0.0947 
    112 H112       25.8891    0.0145  -11.1216 H         1 UNK         0.0806 
    113 H113       24.8431   -0.4491   -9.7906 H         1 UNK         0.0806 
    114 H114       26.5884   -0.4028   -9.5639 H         1 UNK         0.0806 
    115 H115       26.7009    3.5209   -8.3485 H         1 UNK         0.3000 
    116 H116       28.3127    5.0084   -8.4732 H         1 UNK         0.0850 
    117 H117       29.1055    5.8997  -10.6264 H         1 UNK         0.0810 
    118 H118       27.3687    5.6507  -10.6988 H         1 UNK         0.0810 
    119 H119       28.4605    4.5175  -11.4947 H         1 UNK         0.0810 
    120 H120       29.0029    2.7430   -7.4335 H         1 UNK         0.3040 
    121 H121       30.6722    1.4359   -6.7204 H         1 UNK         0.0766 
    122 H122       31.7981    3.6208   -6.3311 H         1 UNK         0.0812 
    123 H123       32.5362    3.5378   -7.9312 H         1 UNK         0.0812 
    124 H124       32.9579    2.3557   -6.7012 H         1 UNK         0.0812 
    125 H125       29.5677    0.2047   -8.6324 H         1 UNK         0.3205 
    126 H126       31.3437   -0.6168  -10.8125 H         1 UNK         0.0754 
    127 H127       29.4399   -2.0799  -11.4157 H         1 UNK         0.0769 
    128 H128       28.8619   -0.4521  -11.1011 H         1 UNK         0.0769 
    129 H129       28.6360   -1.7173   -9.8936 H         1 UNK         0.0769 
    130 H130       32.7508   -0.9593   -8.5352 H         1 UNK         0.2981 
    131 H131       32.4821   -3.6908   -7.4915 H         1 UNK         0.0541 
    132 H132       34.1098   -2.5332  -10.2434 H         1 UNK         0.3459 
    133 H133       35.3642   -3.7485  -10.2678 H         1 UNK         0.3459 
    134 H134       34.2276   -2.9731   -5.8573 H         1 UNK         0.0612 
    135 H135       34.3735   -1.4302   -6.6725 H         1 UNK         0.0612 
    136 H136       33.8969   -1.8882   -3.6450 H         1 UNK         0.0624 
    137 H137       33.8001   -0.2139   -4.1493 H         1 UNK         0.0624 
@<TRIPOS>BOND
     1    1    2 1    
     2    1   72 1    
     3    1   73 1    
     4    1   74 1    
     5    2    3 2    
     6    2    4 am   BACKBONE|DICT|INTERRES
     7    4    5 1    
     8    4   75 1    
     9    5    6 1    
    10    5   35 1    
    11    5   76 1    
    12    6    7 1    
    13    6   77 1    
    14    6   78 1    
    15    7    8 1    
    16    8    9 1    
    17    8   79 1    
    18    8   80 1    
    19    9   10 ar   
    20    9   14 ar   
    21   10   11 ar   
    22   10   81 1    
    23   11   12 ar   
    24   11   71 1    
    25   12   13 ar   
    26   12   82 1    
    27   13   14 ar   
    28   13   15 1    
    29   14   83 1    
    30   15   16 1    
    31   15   84 1    
    32   15   85 1    
    33   16   17 1    
    34   17   18 1    
    35   17   86 1    
    36   17   87 1    
    37   18   19 1    
    38   18   37 1    
    39   18   88 1    
    40   19   20 am   BACKBONE|DICT|INTERRES
    41   19   89 1    
    42   20   21 2    
    43   20   22 1    
    44   22   23 1    
    45   22   24 1    
    46   22   90 1    
    47   23   91 1    
    48   23   92 1    
    49   23   93 1    
    50   24   25 am   BACKBONE|DICT|INTERRES
    51   24   94 1    
    52   25   26 2    
    53   25   27 1    
    54   27   28 1    
    55   27   29 1    
    56   27   95 1    
    57   28   96 1    
    58   28   97 1    
    59   28   98 1    
    60   29   30 am   BACKBONE|DICT|INTERRES
    61   29   99 1    
    62   30   31 2    
    63   30   32 1    
    64   32   33 1    
    65   32   34 1    
    66   32  100 1    
    67   33  101 1    
    68   33  102 1    
    69   33  103 1    
    70   34   35 am   BACKBONE|DICT|INTERRES
    71   34  104 1    
    72   35   36 2    
    73   37   38 2    
    74   37   39 am   BACKBONE|DICT|INTERRES
    75   39   40 1    
    76   39  105 1    
    77   40   41 1    
    78   40   42 1    
    79   40  106 1    
    80   41  107 1    
    81   41  108 1    
    82   41  109 1    
    83   42   43 2    
    84   42   44 am   BACKBONE|DICT|INTERRES
    85   44   45 1    
    86   44  110 1    
    87   45   46 1    
    88   45   47 1    
    89   45  111 1    
    90   46  112 1    
    91   46  113 1    
    92   46  114 1    
    93   47   48 2    
    94   47   49 am   BACKBONE|DICT|INTERRES
    95   49   50 1    
    96   49  115 1    
    97   50   51 1    
    98   50   52 1    
    99   50  116 1    
   100   51  117 1    
   101   51  118 1    
   102   51  119 1    
   103   52   53 2    
   104   52   54 am   BACKBONE|DICT|INTERRES
   105   54   55 1    
   106   54  120 1    
   107   55   56 1    
   108   55   57 1    
   109   55  121 1    
   110   56  122 1    
   111   56  123 1    
   112   56  124 1    
   113   57   58 2    
   114   57   59 am   BACKBONE|DICT|INTERRES
   115   59   60 1    
   116   59  125 1    
   117   60   61 1    
   118   60   62 1    
   119   60  126 1    
   120   61  127 1    
   121   61  128 1    
   122   61  129 1    
   123   62   63 2    
   124   62   64 am   BACKBONE|DICT|INTERRES
   125   64   65 1    
   126   64  130 1    
   127   65   66 1    
   128   65   69 1    
   129   65  131 1    
   130   66   67 am   BACKBONE|DICT|INTERRES
   131   66   68 2    
   132   67  132 1    
   133   67  133 1    
   134   69   70 1    
   135   69  134 1    
   136   69  135 1    
   137   70   71 1    
   138   71  136 1    
   139   71  137 1    
@<TRIPOS>SUBSTRUCTURE
     1 UNK         1 GROUP             0       ****    0 ROOT    
