@<TRIPOS>MOLECULE
3R137
137   139    1
SMALL
USER_CHARGES


@<TRIPOS>ATOM
      1 CA         24.3167   -0.6286   -7.3221 C.3       0 UNK        -0.2020 
      2 C          24.2358   -1.9367   -6.5508 C.2       0 UNK         0.4855 
      3 O          23.2086   -2.6148   -6.5985 O.2       0 UNK        -0.5197 
      4 N          25.3061   -2.2887   -5.8299 N.am      1 UNK        -0.4892 
      5 CA         25.4433   -3.4867   -4.9905 C.3       1 UNK         0.0835 
      6 C6         26.9253   -3.7595   -4.6285 C.3       12 UNK        -0.0855 
      7 S7         27.9357   -4.1585   -6.0909 S.3       12 UNK        -0.2931 
      8 C8         29.2158   -5.2168   -5.3504 C.3       12 UNK         0.0378 
      9 C9         30.2210   -4.4108   -4.5396 C.ar      12 UNK        -0.0802 
     10 C10        31.3008   -3.8016   -5.1856 C.ar      12 UNK        -0.0944 
     11 C11        32.2669   -3.1081   -4.4528 C.ar      12 UNK        -0.0787 
     12 C12        32.1380   -3.0118   -3.0645 C.ar      12 UNK        -0.0862 
     13 C13        31.0530   -3.6002   -2.4053 C.ar      12 UNK        -0.0733 
     14 C14        30.0985   -4.3032   -3.1489 C.ar      12 UNK        -0.0832 
     15 C15        30.9398   -3.5026   -0.8864 C.3       12 UNK         0.0240 
     16 S16        29.6369   -2.3510   -0.3290 S.3       12 UNK        -0.2522 
     17 C17        30.0803   -0.8150   -1.2069 C.3       12 UNK        -0.0967 
     18 CA         29.0801   -0.5569   -2.3636 C.3       5 UNK         0.0660 
     19 N          27.8582    0.1068   -1.8936 N.am      5 UNK        -0.4015 
     20 C          26.6926    0.1341   -2.5521 C.2       4 UNK         0.4946 
     21 O          26.4907   -0.4515   -3.6201 O.2       4 UNK        -0.5353 
     22 CA         25.5790    0.9980   -1.9508 C.3       4 UNK         0.0277 
     23 CB         25.8603    2.4907   -2.2246 C.3       4 UNK        -0.1981 
     24 N          24.3271    0.5830   -2.5757 N.am      4 UNK        -0.4209 
     25 C          23.0900    0.9869   -2.2692 C.2       3 UNK         0.4942 
     26 O          22.8240    1.7846   -1.3694 O.2       3 UNK        -0.5208 
     27 CA         21.9517    0.3913   -3.1146 C.3       3 UNK         0.0250 
     28 CB         21.8361    1.1254   -4.4611 C.3       3 UNK        -0.1990 
     29 N          22.1209   -1.0436   -3.3550 N.am      3 UNK        -0.4232 
     30 C          21.9695   -1.9940   -2.4208 C.2       2 UNK         0.4993 
     31 O          21.6327   -1.7678   -1.2581 O.2       2 UNK        -0.5286 
     32 CA         22.2305   -3.4446   -2.8576 C.3       2 UNK         0.0209 
     33 CB         20.9282   -4.1080   -3.3344 C.3       2 UNK        -0.1931 
     34 N          23.2378   -3.5399   -3.9166 N.am      2 UNK        -0.4546 
     35 C          24.5557   -3.4011   -3.7277 C.2       1 UNK         0.5154 
     36 O          25.0599   -3.2112   -2.6191 O.2       1 UNK        -0.5181 
     37 C          29.7035    0.2106   -3.5475 C.2       5 UNK         0.5014 
     38 O          30.7080    0.9066   -3.3920 O.2       5 UNK        -0.5248 
     39 N          29.0608    0.0636   -4.7050 N.am      6 UNK        -0.4434 
     40 CA         29.4746    0.5003   -6.0244 C.3       6 UNK         0.0363 
     41 CB         29.0418    1.9574   -6.2619 C.3       6 UNK        -0.1936 
     42 C          28.7792   -0.4540   -6.9955 C.2       6 UNK         0.5081 
     43 O          27.5784   -0.6932   -6.8462 O.2       6 UNK        -0.5248 
     44 N          29.5164   -0.9635   -7.9840 N.am      7 UNK        -0.4718 
     45 CA         29.0011   -1.8331   -9.0420 C.3       7 UNK         0.0273 
     46 CB         30.0843   -2.8636   -9.4094 C.3       7 UNK        -0.1935 
     47 C          28.5798   -0.9555  -10.2298 C.2       7 UNK         0.5018 
     48 O          29.1779   -1.0368  -11.3050 O.2       7 UNK        -0.5186 
     49 N          27.6216   -0.0530   -9.9698 N.am      8 UNK        -0.4240 
     50 CA         27.2177    1.1142  -10.7685 C.3       8 UNK         0.0235 
     51 CB         26.7254    0.7267  -12.1773 C.3       8 UNK        -0.2000 
     52 C          28.3148    2.1950  -10.8136 C.2       8 UNK         0.4941 
     53 O          28.0559    3.3350  -10.4267 O.2       8 UNK        -0.5273 
     54 N          29.5256    1.8086  -11.2320 N.am      9 UNK        -0.4262 
     55 CA         30.7596    2.5690  -11.0479 C.3       9 UNK         0.0264 
     56 CB         31.7944    2.0975  -12.0815 C.3       9 UNK        -0.1955 
     57 C          31.2908    2.3463   -9.6234 C.2       9 UNK         0.5031 
     58 O          31.1002    1.2631   -9.0621 O.2       9 UNK        -0.5390 
     59 N          31.9838    3.3496   -9.0712 N.am      10 UNK        -0.4204 
     60 CA         32.5251    3.3674   -7.7052 C.3       10 UNK         0.0237 
     61 CB         32.7978    4.8285   -7.2996 C.3       10 UNK        -0.1985 
     62 C          33.7551    2.4537   -7.5037 C.2       10 UNK         0.4970 
     63 O          34.7871    2.9104   -7.0089 O.2       10 UNK        -0.4914 
     64 N          33.6143    1.1807   -7.8901 N.am      11 UNK        -0.4285 
     65 CA         34.5818    0.0817   -7.7255 C.3       11 UNK         0.1007 
     66 C          35.9045    0.2391   -8.5373 C.2       11 UNK         0.5703 
     67 N          35.9677    1.1122   -9.5358 N.am      11 UNK        -0.7361 
     68 O          36.8799   -0.4655   -8.2873 O.2       11 UNK        -0.4986 
     69 C69        34.8247   -0.2809   -6.2313 C.3       12 UNK        -0.0947 
     70 S70        33.2788   -0.6997   -5.3538 S.3       12 UNK        -0.2240 
     71 C71        33.4690   -2.4943   -5.1540 C.3       12 UNK         0.0194 
     72 H72        24.6691   -0.8123   -8.3365 H         1 UNK         0.0906 
     73 H73        23.3356   -0.1581   -7.3803 H         1 UNK         0.0906 
     74 H74        24.9976    0.0742   -6.8418 H         1 UNK         0.0906 
     75 H75        26.1287   -1.6913   -5.8644 H         1 UNK         0.3140 
     76 H76        25.0840   -4.3419   -5.5673 H         1 UNK         0.1085 
     77 H77        26.9914   -4.5935   -3.9275 H         1 UNK         0.0836 
     78 H78        27.3682   -2.9008   -4.1233 H         1 UNK         0.0836 
     79 H79        29.7358   -5.7438   -6.1519 H         1 UNK         0.0731 
     80 H80        28.7525   -5.9902   -4.7361 H         1 UNK         0.0731 
     81 H81        31.3970   -3.8838   -6.2596 H         1 UNK         0.1312 
     82 H82        32.8891   -2.4778   -2.4984 H         1 UNK         0.1406 
     83 H83        29.2663   -4.7722   -2.6415 H         1 UNK         0.1631 
     84 H84        31.8910   -3.1921   -0.4510 H         1 UNK         0.0717 
     85 H85        30.7309   -4.4920   -0.4771 H         1 UNK         0.0717 
     86 H86        30.0929    0.0175   -0.5016 H         1 UNK         0.0934 
     87 H87        31.1068   -0.9028   -1.5654 H         1 UNK         0.0934 
     88 H88        28.7934   -1.5288   -2.7722 H         1 UNK         0.0739 
     89 H89        27.9437    0.6330   -1.0366 H         1 UNK         0.3093 
     90 H90        25.5193    0.8115   -0.8768 H         1 UNK         0.0818 
     91 H91        26.8177    2.7976   -1.8022 H         1 UNK         0.0819 
     92 H92        25.8942    2.7014   -3.2945 H         1 UNK         0.0819 
     93 H93        25.1002    3.1342   -1.7822 H         1 UNK         0.0819 
     94 H94        24.4685   -0.0977   -3.3133 H         1 UNK         0.3041 
     95 H95        21.0180    0.5369   -2.5667 H         1 UNK         0.0784 
     96 H96        21.6803    2.1943   -4.3086 H         1 UNK         0.0793 
     97 H97        22.7367    1.0113   -5.0656 H         1 UNK         0.0793 
     98 H98        20.9915    0.7564   -5.0435 H         1 UNK         0.0793 
     99 H99        22.3821   -1.3298   -4.2875 H         1 UNK         0.3024 
    100 H100       22.5933   -3.9892   -1.9825 H         1 UNK         0.1171 
    101 H101       20.5229   -3.6153   -4.2192 H         1 UNK         0.0786 
    102 H102       21.0850   -5.1591   -3.5777 H         1 UNK         0.0786 
    103 H103       20.1626   -4.0672   -2.5582 H         1 UNK         0.0786 
    104 H104       22.9079   -3.6054   -4.8751 H         1 UNK         0.2977 
    105 H105       28.1807   -0.4488   -4.6995 H         1 UNK         0.3127 
    106 H106       30.5580    0.4090   -6.1239 H         1 UNK         0.0770 
    107 H107       29.2807    2.2768   -7.2764 H         1 UNK         0.0814 
    108 H108       29.5478    2.6371   -5.5764 H         1 UNK         0.0814 
    109 H109       27.9668    2.0832   -6.1265 H         1 UNK         0.0814 
    110 H110       30.4444   -0.5849   -8.1317 H         1 UNK         0.2983 
    111 H111       28.1194   -2.3774   -8.6951 H         1 UNK         0.0947 
    112 H112       29.7392   -3.5253  -10.2047 H         1 UNK         0.0806 
    113 H113       30.3356   -3.4902   -8.5536 H         1 UNK         0.0806 
    114 H114       31.0004   -2.3833   -9.7555 H         1 UNK         0.0806 
    115 H115       27.2500   -0.0710   -9.0272 H         1 UNK         0.3000 
    116 H116       26.3691    1.5506  -10.2388 H         1 UNK         0.0850 
    117 H117       27.5228    0.3207  -12.7998 H         1 UNK         0.0810 
    118 H118       26.3249    1.5974  -12.6979 H         1 UNK         0.0810 
    119 H119       25.9290   -0.0157  -12.1273 H         1 UNK         0.0810 
    120 H120       29.6336    0.8215  -11.4505 H         1 UNK         0.3040 
    121 H121       30.5583    3.6316  -11.1997 H         1 UNK         0.0766 
    122 H122       31.4307    2.2410  -13.0991 H         1 UNK         0.0812 
    123 H123       32.0345    1.0402  -11.9583 H         1 UNK         0.0812 
    124 H124       32.7261    2.6571  -11.9890 H         1 UNK         0.0812 
    125 H125       32.1363    4.1849   -9.6185 H         1 UNK         0.3205 
    126 H126       31.7530    2.9853   -7.0345 H         1 UNK         0.0754 
    127 H127       33.1386    4.8917   -6.2651 H         1 UNK         0.0769 
    128 H128       31.8962    5.4368   -7.3756 H         1 UNK         0.0769 
    129 H129       33.5660    5.2846   -7.9253 H         1 UNK         0.0769 
    130 H130       32.7253    0.9329   -8.3181 H         1 UNK         0.2981 
    131 H131       34.0989   -0.7827   -8.1823 H         1 UNK         0.0541 
    132 H132       35.1759    1.6943   -9.7543 H         1 UNK         0.3459 
    133 H133       36.8222    1.1986  -10.0628 H         1 UNK         0.3459 
    134 H134       35.3009    0.5496   -5.7084 H         1 UNK         0.0612 
    135 H135       35.5141   -1.1223   -6.1447 H         1 UNK         0.0612 
    136 H136       34.3725   -2.7002   -4.5781 H         1 UNK         0.0624 
    137 H137       33.6141   -2.9502   -6.1346 H         1 UNK         0.0624 
@<TRIPOS>BOND
     1    1    2 1    
     2    1   72 1    
     3    1   73 1    
     4    1   74 1    
     5    2    3 2    
     6    2    4 am   BACKBONE|DICT|INTERRES
     7    4    5 1    
     8    4   75 1    
     9    5    6 1    
    10    5   35 1    
    11    5   76 1    
    12    6    7 1    
    13    6   77 1    
    14    6   78 1    
    15    7    8 1    
    16    8    9 1    
    17    8   79 1    
    18    8   80 1    
    19    9   10 ar   
    20    9   14 ar   
    21   10   11 ar   
    22   10   81 1    
    23   11   12 ar   
    24   11   71 1    
    25   12   13 ar   
    26   12   82 1    
    27   13   14 ar   
    28   13   15 1    
    29   14   83 1    
    30   15   16 1    
    31   15   84 1    
    32   15   85 1    
    33   16   17 1    
    34   17   18 1    
    35   17   86 1    
    36   17   87 1    
    37   18   19 1    
    38   18   37 1    
    39   18   88 1    
    40   19   20 am   BACKBONE|DICT|INTERRES
    41   19   89 1    
    42   20   21 2    
    43   20   22 1    
    44   22   23 1    
    45   22   24 1    
    46   22   90 1    
    47   23   91 1    
    48   23   92 1    
    49   23   93 1    
    50   24   25 am   BACKBONE|DICT|INTERRES
    51   24   94 1    
    52   25   26 2    
    53   25   27 1    
    54   27   28 1    
    55   27   29 1    
    56   27   95 1    
    57   28   96 1    
    58   28   97 1    
    59   28   98 1    
    60   29   30 am   BACKBONE|DICT|INTERRES
    61   29   99 1    
    62   30   31 2    
    63   30   32 1    
    64   32   33 1    
    65   32   34 1    
    66   32  100 1    
    67   33  101 1    
    68   33  102 1    
    69   33  103 1    
    70   34   35 am   BACKBONE|DICT|INTERRES
    71   34  104 1    
    72   35   36 2    
    73   37   38 2    
    74   37   39 am   BACKBONE|DICT|INTERRES
    75   39   40 1    
    76   39  105 1    
    77   40   41 1    
    78   40   42 1    
    79   40  106 1    
    80   41  107 1    
    81   41  108 1    
    82   41  109 1    
    83   42   43 2    
    84   42   44 am   BACKBONE|DICT|INTERRES
    85   44   45 1    
    86   44  110 1    
    87   45   46 1    
    88   45   47 1    
    89   45  111 1    
    90   46  112 1    
    91   46  113 1    
    92   46  114 1    
    93   47   48 2    
    94   47   49 am   BACKBONE|DICT|INTERRES
    95   49   50 1    
    96   49  115 1    
    97   50   51 1    
    98   50   52 1    
    99   50  116 1    
   100   51  117 1    
   101   51  118 1    
   102   51  119 1    
   103   52   53 2    
   104   52   54 am   BACKBONE|DICT|INTERRES
   105   54   55 1    
   106   54  120 1    
   107   55   56 1    
   108   55   57 1    
   109   55  121 1    
   110   56  122 1    
   111   56  123 1    
   112   56  124 1    
   113   57   58 2    
   114   57   59 am   BACKBONE|DICT|INTERRES
   115   59   60 1    
   116   59  125 1    
   117   60   61 1    
   118   60   62 1    
   119   60  126 1    
   120   61  127 1    
   121   61  128 1    
   122   61  129 1    
   123   62   63 2    
   124   62   64 am   BACKBONE|DICT|INTERRES
   125   64   65 1    
   126   64  130 1    
   127   65   66 1    
   128   65   69 1    
   129   65  131 1    
   130   66   67 am   BACKBONE|DICT|INTERRES
   131   66   68 2    
   132   67  132 1    
   133   67  133 1    
   134   69   70 1    
   135   69  134 1    
   136   69  135 1    
   137   70   71 1    
   138   71  136 1    
   139   71  137 1    
@<TRIPOS>SUBSTRUCTURE
     1 UNK         1 GROUP             0       ****    0 ROOT    
