@<TRIPOS>MOLECULE
3R137
137   139    1
SMALL
USER_CHARGES


@<TRIPOS>ATOM
      1 CA         22.4592    1.5743    0.8370 C.3       0 UNK        -0.2020 
      2 C          23.2782    0.9436   -0.2789 C.2       0 UNK         0.4855 
      3 O          22.8585    0.9679   -1.4353 O.2       0 UNK        -0.5197 
      4 N          24.4386    0.3653    0.0586 N.am      1 UNK        -0.4892 
      5 CA         25.3688   -0.2747   -0.8824 C.3       1 UNK         0.0835 
      6 C6         26.8441   -0.0418   -0.4567 C.3       12 UNK        -0.0855 
      7 S7         28.0305   -0.1512   -1.8461 S.3       12 UNK        -0.2931 
      8 C8         28.9985   -1.5995   -1.3212 C.3       12 UNK         0.0378 
      9 C9         29.8397   -2.1653   -2.4534 C.ar      12 UNK        -0.0802 
     10 C10        31.1102   -1.6416   -2.7135 C.ar      12 UNK        -0.0944 
     11 C11        31.9184   -2.1981   -3.7100 C.ar      12 UNK        -0.0787 
     12 C12        31.4559   -3.3086   -4.4168 C.ar      12 UNK        -0.0862 
     13 C13        30.1669   -3.8057   -4.2095 C.ar      12 UNK        -0.0733 
     14 C14        29.3619   -3.2354   -3.2187 C.ar      12 UNK        -0.0832 
     15 C15        29.6623   -4.9569   -5.0699 C.3       12 UNK         0.0240 
     16 S16        28.5540   -4.4174   -6.4193 S.3       12 UNK        -0.2522 
     17 C17        29.4026   -2.9635   -7.1497 C.3       12 UNK        -0.0967 
     18 CA         28.5878   -1.6363   -7.0957 C.3       5 UNK         0.0660 
     19 N          27.5569   -1.6053   -6.0517 N.am      5 UNK        -0.4015 
     20 C          26.5685   -0.7048   -5.9789 C.2       4 UNK         0.4946 
     21 O          26.4751    0.2591   -6.7421 O.2       4 UNK        -0.5353 
     22 CA         25.5463   -0.8907   -4.8444 C.3       4 UNK         0.0277 
     23 CB         24.2225   -0.1377   -5.0894 C.3       4 UNK        -0.1981 
     24 N          25.2845   -2.2905   -4.4877 N.am      4 UNK        -0.4209 
     25 C          24.7238   -3.2451   -5.2484 C.2       3 UNK         0.4942 
     26 O          24.4480   -3.1059   -6.4401 O.2       3 UNK        -0.5208 
     27 CA         24.3855   -4.5814   -4.5538 C.3       3 UNK         0.0250 
     28 CB         25.4900   -5.6198   -4.8044 C.3       3 UNK        -0.1990 
     29 N          24.1792   -4.4429   -3.1085 N.am      3 UNK        -0.4232 
     30 C          23.1449   -3.8122   -2.5338 C.2       2 UNK         0.4993 
     31 O          22.1627   -3.3999   -3.1516 O.2       2 UNK        -0.5286 
     32 CA         23.2459   -3.5440   -1.0190 C.3       2 UNK         0.0209 
     33 CB         23.9941   -4.6512   -0.2420 C.3       2 UNK        -0.1931 
     34 N          23.8265   -2.2192   -0.7488 N.am      2 UNK        -0.4546 
     35 C          25.0290   -1.7653   -1.1397 C.2       1 UNK         0.5154 
     36 O          25.8484   -2.4799   -1.7190 O.2       1 UNK        -0.5181 
     37 C          29.5116   -0.3983   -7.0495 C.2       5 UNK         0.5014 
     38 O          30.0082    0.0180   -8.0969 O.2       5 UNK        -0.5248 
     39 N          29.6991    0.1894   -5.8567 N.am      6 UNK        -0.4434 
     40 CA         30.4131    1.4539   -5.6595 C.3       6 UNK         0.0363 
     41 CB         30.7556    1.6441   -4.1744 C.3       6 UNK        -0.1936 
     42 C          29.6333    2.6699   -6.1800 C.2       6 UNK         0.5081 
     43 O          30.2473    3.5778   -6.7380 O.2       6 UNK        -0.5248 
     44 N          28.3011    2.6645   -6.0238 N.am      7 UNK        -0.4718 
     45 CA         27.4118    3.7107   -6.5432 C.3       7 UNK         0.0273 
     46 CB         26.0298    3.6032   -5.8813 C.3       7 UNK        -0.1935 
     47 C          27.2932    3.6487   -8.0745 C.2       7 UNK         0.5018 
     48 O          27.2279    4.6932   -8.7228 O.2       7 UNK        -0.5186 
     49 N          27.3270    2.4259   -8.6231 N.am      8 UNK        -0.4240 
     50 CA         27.4510    2.1521  -10.0574 C.3       8 UNK         0.0235 
     51 CB         27.0836    0.6808  -10.3128 C.3       8 UNK        -0.2000 
     52 C          28.8537    2.4577  -10.6248 C.2       8 UNK         0.4941 
     53 O          29.0037    2.4871  -11.8467 O.2       8 UNK        -0.5273 
     54 N          29.8475    2.6533   -9.7419 N.am      9 UNK        -0.4262 
     55 CA         31.2747    2.8677  -10.0131 C.3       9 UNK         0.0264 
     56 CB         31.5031    4.2084  -10.7425 C.3       9 UNK        -0.1955 
     57 C          31.9422    1.6728  -10.7230 C.2       9 UNK         0.5031 
     58 O          32.8790    1.8636  -11.5010 O.2       9 UNK        -0.5390 
     59 N          31.4520    0.4594  -10.4408 N.am      10 UNK        -0.4204 
     60 CA         31.9144   -0.7880  -11.0446 C.3       10 UNK         0.0237 
     61 CB         30.7594   -1.8018  -11.0529 C.3       10 UNK        -0.1985 
     62 C          33.1405   -1.3665  -10.3243 C.2       10 UNK         0.4970 
     63 O          33.9899   -1.9639  -10.9863 O.2       10 UNK        -0.4914 
     64 N          33.2158   -1.1883   -8.9973 N.am      11 UNK        -0.4285 
     65 CA         34.3271   -1.6754   -8.1622 C.3       11 UNK         0.1007 
     66 C          35.5759   -0.7453   -8.1215 C.2       11 UNK         0.5703 
     67 N          35.5657    0.4124   -8.7726 N.am      11 UNK        -0.7361 
     68 O          36.5814   -1.0912   -7.5056 O.2       11 UNK        -0.4986 
     69 C69        33.8378   -2.1247   -6.7598 C.3       12 UNK        -0.0947 
     70 S70        33.3161   -0.7714   -5.6498 S.3       12 UNK        -0.2240 
     71 C71        33.2872   -1.6063   -4.0248 C.3       12 UNK         0.0194 
     72 H72        22.9423    1.4700    1.8084 H         1 UNK         0.0906 
     73 H73        22.3172    2.6370    0.6421 H         1 UNK         0.0906 
     74 H74        21.4774    1.1049    0.8942 H         1 UNK         0.0906 
     75 H75        24.7212    0.3529    1.0296 H         1 UNK         0.3140 
     76 H76        25.2392    0.2200   -1.8470 H         1 UNK         0.1085 
     77 H77        26.9531    0.9640   -0.0473 H         1 UNK         0.0836 
     78 H78        27.1280   -0.7168    0.3529 H         1 UNK         0.0836 
     79 H79        28.3333   -2.3749   -0.9393 H         1 UNK         0.0731 
     80 H80        29.6405   -1.3153   -0.4860 H         1 UNK         0.0731 
     81 H81        31.4690   -0.8027   -2.1330 H         1 UNK         0.1312 
     82 H82        32.0870   -3.7680   -5.1621 H         1 UNK         0.1406 
     83 H83        28.3715   -3.6299   -3.0330 H         1 UNK         0.1631 
     84 H84        29.1315   -5.6757   -4.4442 H         1 UNK         0.0717 
     85 H85        30.5016   -5.5009   -5.5062 H         1 UNK         0.0717 
     86 H86        30.3892   -2.8451   -6.7084 H         1 UNK         0.0934 
     87 H87        29.6097   -3.2097   -8.1915 H         1 UNK         0.0934 
     88 H88        28.0419   -1.5698   -8.0390 H         1 UNK         0.0739 
     89 H89        27.5587   -2.3856   -5.4109 H         1 UNK         0.3093 
     90 H90        26.0128   -0.4436   -3.9684 H         1 UNK         0.0818 
     91 H91        24.3891    0.9355   -5.1714 H         1 UNK         0.0819 
     92 H92        23.7372   -0.4640   -6.0098 H         1 UNK         0.0819 
     93 H93        23.5221   -0.2894   -4.2675 H         1 UNK         0.0819 
     94 H94        25.4950   -2.5279   -3.5195 H         1 UNK         0.3041 
     95 H95        23.4582   -4.9530   -4.9950 H         1 UNK         0.0784 
     96 H96        25.6723   -5.7466   -5.8727 H         1 UNK         0.0793 
     97 H97        26.4337   -5.3243   -4.3449 H         1 UNK         0.0793 
     98 H98        25.2142   -6.5964   -4.4062 H         1 UNK         0.0793 
     99 H99        24.9544   -4.6996   -2.5133 H         1 UNK         0.3024 
    100 H100       22.2204   -3.5203   -0.6456 H         1 UNK         0.1171 
    101 H101       23.9104   -4.4936    0.8334 H         1 UNK         0.0786 
    102 H102       23.5691   -5.6331   -0.4548 H         1 UNK         0.0786 
    103 H103       25.0566   -4.6941   -0.4818 H         1 UNK         0.0786 
    104 H104       23.2061   -1.5497   -0.3153 H         1 UNK         0.2977 
    105 H105       29.2907   -0.2383   -5.0380 H         1 UNK         0.3127 
    106 H106       31.3493    1.4080   -6.2196 H         1 UNK         0.0770 
    107 H107       29.8690    1.6009   -3.5415 H         1 UNK         0.0814 
    108 H108       31.2319    2.6105   -4.0034 H         1 UNK         0.0814 
    109 H109       31.4555    0.8847   -3.8329 H         1 UNK         0.0814 
    110 H110       27.8596    1.8568   -5.6077 H         1 UNK         0.2983 
    111 H111       27.8393    4.6814   -6.2811 H         1 UNK         0.0947 
    112 H112       25.3951    4.4401   -6.1753 H         1 UNK         0.0806 
    113 H113       26.1032    3.6177   -4.7938 H         1 UNK         0.0806 
    114 H114       25.5132    2.6902   -6.1747 H         1 UNK         0.0806 
    115 H115       27.2880    1.6234   -8.0009 H         1 UNK         0.3000 
    116 H116       26.7366    2.7843  -10.5889 H         1 UNK         0.0850 
    117 H117       27.0745    0.4607  -11.3811 H         1 UNK         0.0810 
    118 H118       26.0934    0.4427   -9.9234 H         1 UNK         0.0810 
    119 H119       27.7993    0.0022   -9.8488 H         1 UNK         0.0810 
    120 H120       29.6080    2.6046   -8.7606 H         1 UNK         0.3040 
    121 H121       31.7567    2.9399   -9.0371 H         1 UNK         0.0766 
    122 H122       31.1051    4.1905  -11.7575 H         1 UNK         0.0812 
    123 H123       32.5667    4.4385  -10.8150 H         1 UNK         0.0812 
    124 H124       31.0300    5.0336  -10.2102 H         1 UNK         0.0812 
    125 H125       30.7384    0.3817   -9.7164 H         1 UNK         0.3205 
    126 H126       32.1987   -0.5953  -12.0816 H         1 UNK         0.0754 
    127 H127       31.0679   -2.7445  -11.5071 H         1 UNK         0.0769 
    128 H128       29.9103   -1.4278  -11.6256 H         1 UNK         0.0769 
    129 H129       30.4100   -2.0217  -10.0449 H         1 UNK         0.0769 
    130 H130       32.4877   -0.6749   -8.5215 H         1 UNK         0.2981 
    131 H131       34.6980   -2.5875   -8.6337 H         1 UNK         0.0541 
    132 H132       34.7573    0.6951   -9.3023 H         1 UNK         0.3459 
    133 H133       36.3835    1.0004   -8.7445 H         1 UNK         0.3459 
    134 H134       34.6234   -2.6976   -6.2646 H         1 UNK         0.0612 
    135 H135       33.0020   -2.8109   -6.8881 H         1 UNK         0.0612 
    136 H136       33.5634   -0.8754   -3.2636 H         1 UNK         0.0624 
    137 H137       34.0481   -2.3865   -3.9846 H         1 UNK         0.0624 
@<TRIPOS>BOND
     1    1    2 1    
     2    1   72 1    
     3    1   73 1    
     4    1   74 1    
     5    2    3 2    
     6    2    4 am   BACKBONE|DICT|INTERRES
     7    4    5 1    
     8    4   75 1    
     9    5    6 1    
    10    5   35 1    
    11    5   76 1    
    12    6    7 1    
    13    6   77 1    
    14    6   78 1    
    15    7    8 1    
    16    8    9 1    
    17    8   79 1    
    18    8   80 1    
    19    9   10 ar   
    20    9   14 ar   
    21   10   11 ar   
    22   10   81 1    
    23   11   12 ar   
    24   11   71 1    
    25   12   13 ar   
    26   12   82 1    
    27   13   14 ar   
    28   13   15 1    
    29   14   83 1    
    30   15   16 1    
    31   15   84 1    
    32   15   85 1    
    33   16   17 1    
    34   17   18 1    
    35   17   86 1    
    36   17   87 1    
    37   18   19 1    
    38   18   37 1    
    39   18   88 1    
    40   19   20 am   BACKBONE|DICT|INTERRES
    41   19   89 1    
    42   20   21 2    
    43   20   22 1    
    44   22   23 1    
    45   22   24 1    
    46   22   90 1    
    47   23   91 1    
    48   23   92 1    
    49   23   93 1    
    50   24   25 am   BACKBONE|DICT|INTERRES
    51   24   94 1    
    52   25   26 2    
    53   25   27 1    
    54   27   28 1    
    55   27   29 1    
    56   27   95 1    
    57   28   96 1    
    58   28   97 1    
    59   28   98 1    
    60   29   30 am   BACKBONE|DICT|INTERRES
    61   29   99 1    
    62   30   31 2    
    63   30   32 1    
    64   32   33 1    
    65   32   34 1    
    66   32  100 1    
    67   33  101 1    
    68   33  102 1    
    69   33  103 1    
    70   34   35 am   BACKBONE|DICT|INTERRES
    71   34  104 1    
    72   35   36 2    
    73   37   38 2    
    74   37   39 am   BACKBONE|DICT|INTERRES
    75   39   40 1    
    76   39  105 1    
    77   40   41 1    
    78   40   42 1    
    79   40  106 1    
    80   41  107 1    
    81   41  108 1    
    82   41  109 1    
    83   42   43 2    
    84   42   44 am   BACKBONE|DICT|INTERRES
    85   44   45 1    
    86   44  110 1    
    87   45   46 1    
    88   45   47 1    
    89   45  111 1    
    90   46  112 1    
    91   46  113 1    
    92   46  114 1    
    93   47   48 2    
    94   47   49 am   BACKBONE|DICT|INTERRES
    95   49   50 1    
    96   49  115 1    
    97   50   51 1    
    98   50   52 1    
    99   50  116 1    
   100   51  117 1    
   101   51  118 1    
   102   51  119 1    
   103   52   53 2    
   104   52   54 am   BACKBONE|DICT|INTERRES
   105   54   55 1    
   106   54  120 1    
   107   55   56 1    
   108   55   57 1    
   109   55  121 1    
   110   56  122 1    
   111   56  123 1    
   112   56  124 1    
   113   57   58 2    
   114   57   59 am   BACKBONE|DICT|INTERRES
   115   59   60 1    
   116   59  125 1    
   117   60   61 1    
   118   60   62 1    
   119   60  126 1    
   120   61  127 1    
   121   61  128 1    
   122   61  129 1    
   123   62   63 2    
   124   62   64 am   BACKBONE|DICT|INTERRES
   125   64   65 1    
   126   64  130 1    
   127   65   66 1    
   128   65   69 1    
   129   65  131 1    
   130   66   67 am   BACKBONE|DICT|INTERRES
   131   66   68 2    
   132   67  132 1    
   133   67  133 1    
   134   69   70 1    
   135   69  134 1    
   136   69  135 1    
   137   70   71 1    
   138   71  136 1    
   139   71  137 1    
@<TRIPOS>SUBSTRUCTURE
     1 UNK         1 GROUP             0       ****    0 ROOT    
