@<TRIPOS>MOLECULE
3R137
137   139    1
SMALL
USER_CHARGES


@<TRIPOS>ATOM
      1 CA         27.2254   -6.5239   -5.3317 C.3       0 UNK        -0.2020 
      2 C          26.8478   -5.7075   -4.1048 C.2       0 UNK         0.4855 
      3 O          25.6701   -5.6461   -3.7494 O.2       0 UNK        -0.5197 
      4 N          27.8380   -5.0833   -3.4545 N.am      1 UNK        -0.4892 
      5 CA         27.6600   -4.1891   -2.3055 C.3       1 UNK         0.0835 
      6 C6         29.0152   -3.7053   -1.7420 C.3       12 UNK        -0.0855 
      7 S7         30.1436   -4.9948   -1.1194 S.3       12 UNK        -0.2931 
      8 C8         31.3572   -3.9685   -0.2063 C.3       12 UNK         0.0378 
      9 C9         32.0384   -2.9516   -1.1164 C.ar      12 UNK        -0.0802 
     10 C10        33.2241   -3.2704   -1.7809 C.ar      12 UNK        -0.0944 
     11 C11        33.7910   -2.3765   -2.6965 C.ar      12 UNK        -0.0787 
     12 C12        33.1371   -1.1663   -2.9733 C.ar      12 UNK        -0.0862 
     13 C13        31.9428   -0.8418   -2.3192 C.ar      12 UNK        -0.0733 
     14 C14        31.4444   -1.7080   -1.3428 C.ar      12 UNK        -0.0832 
     15 C15        31.1202    0.3815   -2.7148 C.3       12 UNK         0.0240 
     16 S16        29.4996   -0.1739   -3.3427 S.3       12 UNK        -0.2522 
     17 C17        28.5563    1.3438   -3.7125 C.3       12 UNK        -0.0967 
     18 CA         28.0663    1.3569   -5.1833 C.3       5 UNK         0.0660 
     19 N          27.4274    0.1026   -5.5971 N.am      5 UNK        -0.4015 
     20 C          27.2517   -0.2646   -6.8721 C.2       4 UNK         0.4946 
     21 O          27.6541    0.3965   -7.8305 O.2       4 UNK        -0.5353 
     22 CA         26.5113   -1.5840   -7.1273 C.3       4 UNK         0.0277 
     23 CB         27.4977   -2.7638   -7.1388 C.3       4 UNK        -0.1981 
     24 N          25.4610   -1.8213   -6.1358 N.am      4 UNK        -0.4209 
     25 C          24.2862   -1.1757   -6.1144 C.2       3 UNK         0.4942 
     26 O          23.9549   -0.3353   -6.9494 O.2       3 UNK        -0.5208 
     27 CA         23.3322   -1.4906   -4.9485 C.3       3 UNK         0.0250 
     28 CB         22.5075   -2.7514   -5.2519 C.3       3 UNK        -0.1990 
     29 N          24.0169   -1.6520   -3.6636 N.am      3 UNK        -0.4232 
     30 C          24.7206   -0.6892   -3.0525 C.2       2 UNK         0.4993 
     31 O          24.8502    0.4520   -3.4932 O.2       2 UNK        -0.5286 
     32 CA         25.4564   -1.0723   -1.7589 C.3       2 UNK         0.0209 
     33 CB         24.5255   -0.9128   -0.5463 C.3       2 UNK        -0.1931 
     34 N          26.0634   -2.4112   -1.7388 N.am      2 UNK        -0.4546 
     35 C          26.8531   -2.9317   -2.6903 C.2       1 UNK         0.5154 
     36 O          27.0246   -2.4188   -3.7989 O.2       1 UNK        -0.5181 
     37 C          27.1580    2.5621   -5.4954 C.2       5 UNK         0.5014 
     38 O          27.6443    3.5536   -6.0396 O.2       5 UNK        -0.5248 
     39 N          25.8496    2.4336   -5.2222 N.am      6 UNK        -0.4434 
     40 CA         24.8148    3.4100   -5.5813 C.3       6 UNK         0.0363 
     41 CB         23.4775    3.0031   -4.9428 C.3       6 UNK        -0.1936 
     42 C          24.6489    3.5897   -7.1010 C.2       6 UNK         0.5081 
     43 O          24.4149    4.7100   -7.5541 O.2       6 UNK        -0.5248 
     44 N          24.8083    2.4988   -7.8642 N.am      7 UNK        -0.4718 
     45 CA         24.8190    2.4972   -9.3318 C.3       7 UNK         0.0273 
     46 CB         24.5588    1.0666   -9.8327 C.3       7 UNK        -0.1935 
     47 C          26.1198    3.0507   -9.9481 C.2       7 UNK         0.5018 
     48 O          26.1838    3.1846  -11.1707 O.2       7 UNK        -0.5186 
     49 N          27.1295    3.3379   -9.1117 N.am      8 UNK        -0.4240 
     50 CA         28.4729    3.8185   -9.4544 C.3       8 UNK         0.0235 
     51 CB         28.4196    5.1906  -10.1604 C.3       8 UNK        -0.2000 
     52 C          29.3331    2.7867  -10.2110 C.2       8 UNK         0.4941 
     53 O          30.3176    3.1702  -10.8454 O.2       8 UNK        -0.5273 
     54 N          28.9850    1.4965  -10.0994 N.am      9 UNK        -0.4262 
     55 CA         29.8303    0.3761  -10.5161 C.3       9 UNK         0.0264 
     56 CB         28.9673   -0.8733  -10.7565 C.3       9 UNK        -0.1955 
     57 C          30.9188    0.1108   -9.4637 C.2       9 UNK         0.5031 
     58 O          32.0645   -0.1398   -9.8382 O.2       9 UNK        -0.5390 
     59 N          30.5318    0.2145   -8.1794 N.am      10 UNK        -0.4204 
     60 CA         31.3653    0.2866   -6.9700 C.3       10 UNK         0.0237 
     61 CB         31.8192    1.7463   -6.7592 C.3       10 UNK        -0.1985 
     62 C          32.5416   -0.7067   -6.9456 C.2       10 UNK         0.4970 
     63 O          33.6952   -0.2804   -6.8891 O.2       10 UNK        -0.4914 
     64 N          32.2040   -1.9999   -7.0412 N.am      11 UNK        -0.4285 
     65 CA         33.1029   -3.1672   -7.1177 C.3       11 UNK         0.1007 
     66 C          34.0853   -3.2154   -8.3304 C.2       11 UNK         0.5703 
     67 N          33.9582   -2.3570   -9.3358 N.am      11 UNK        -0.7361 
     68 O          34.9508   -4.0860   -8.3905 O.2       11 UNK        -0.4986 
     69 C69        33.7433   -3.5617   -5.7498 C.3       12 UNK        -0.0947 
     70 S70        35.1175   -2.4984   -5.1825 S.3       12 UNK        -0.2240 
     71 C71        35.1054   -2.7485   -3.3780 C.3       12 UNK         0.0194 
     72 H72        26.9611   -7.5704   -5.1821 H         1 UNK         0.0906 
     73 H73        26.6866   -6.1576   -6.2051 H         1 UNK         0.0906 
     74 H74        28.2927   -6.4699   -5.5454 H         1 UNK         0.0906 
     75 H75        28.7873   -5.1686   -3.7879 H         1 UNK         0.3140 
     76 H76        27.1194   -4.7368   -1.5308 H         1 UNK         0.1085 
     77 H77        29.5463   -3.1534   -2.5203 H         1 UNK         0.0836 
     78 H78        28.8421   -3.0062   -0.9213 H         1 UNK         0.0836 
     79 H79        32.1032   -4.6220    0.2486 H         1 UNK         0.0731 
     80 H80        30.8559   -3.4596    0.6186 H         1 UNK         0.0731 
     81 H81        33.6959   -4.2260   -1.5962 H         1 UNK         0.1312 
     82 H82        33.5427   -0.4964   -3.7195 H         1 UNK         0.1406 
     83 H83        30.5256   -1.4518   -0.8344 H         1 UNK         0.1631 
     84 H84        31.6280    0.9675   -3.4821 H         1 UNK         0.0717 
     85 H85        30.9808    1.0298   -1.8487 H         1 UNK         0.0717 
     86 H86        27.7113    1.3906   -3.0229 H         1 UNK         0.0934 
     87 H87        29.1742    2.2196   -3.5061 H         1 UNK         0.0934 
     88 H88        28.9521    1.4824   -5.8055 H         1 UNK         0.0739 
     89 H89        27.1407   -0.5333   -4.8610 H         1 UNK         0.3093 
     90 H90        26.0474   -1.5207   -8.1136 H         1 UNK         0.0818 
     91 H91        28.2608   -2.6289   -7.9057 H         1 UNK         0.0819 
     92 H92        28.0148   -2.8746   -6.1851 H         1 UNK         0.0819 
     93 H93        26.9878   -3.7029   -7.3532 H         1 UNK         0.0819 
     94 H94        25.7099   -2.4109   -5.3485 H         1 UNK         0.3041 
     95 H95        22.6448   -0.6474   -4.8522 H         1 UNK         0.0784 
     96 H96        21.9770   -2.6516   -6.2001 H         1 UNK         0.0793 
     97 H97        23.1370   -3.6398   -5.3218 H         1 UNK         0.0793 
     98 H98        21.7580   -2.9305   -4.4808 H         1 UNK         0.0793 
     99 H99        23.9920   -2.5682   -3.2392 H         1 UNK         0.3024 
    100 H100       26.2767   -0.3596   -1.6492 H         1 UNK         0.1171 
    101 H101       25.0684   -1.0342    0.3913 H         1 UNK         0.0786 
    102 H102       24.0732    0.0801   -0.5280 H         1 UNK         0.0786 
    103 H103       23.7134   -1.6407   -0.5619 H         1 UNK         0.0786 
    104 H104       25.9797   -2.9132   -0.8662 H         1 UNK         0.2977 
    105 H105       25.5282    1.6059   -4.7199 H         1 UNK         0.3127 
    106 H106       25.1124    4.3752   -5.1661 H         1 UNK         0.0770 
    107 H107       23.1449    2.0256   -5.2948 H         1 UNK         0.0814 
    108 H108       22.6934    3.7224   -5.1828 H         1 UNK         0.0814 
    109 H109       23.5547    2.9579   -3.8563 H         1 UNK         0.0814 
    110 H110       24.9243    1.5997   -7.4109 H         1 UNK         0.2983 
    111 H111       24.0039    3.1340   -9.6824 H         1 UNK         0.0947 
    112 H112       24.5183    1.0312  -10.9222 H         1 UNK         0.0806 
    113 H113       23.6070    0.6841   -9.4642 H         1 UNK         0.0806 
    114 H114       25.3436    0.3805   -9.5137 H         1 UNK         0.0806 
    115 H115       26.9726    3.1865   -8.1223 H         1 UNK         0.3000 
    116 H116       28.9776    3.9684   -8.4988 H         1 UNK         0.0850 
    117 H117       29.4171    5.6222  -10.2517 H         1 UNK         0.0810 
    118 H118       27.8115    5.9012   -9.6005 H         1 UNK         0.0810 
    119 H119       28.0082    5.1146  -11.1671 H         1 UNK         0.0810 
    120 H120       28.1934    1.2655   -9.5060 H         1 UNK         0.3040 
    121 H121       30.3237    0.6323  -11.4564 H         1 UNK         0.0766 
    122 H122       28.2337   -0.6986  -11.5436 H         1 UNK         0.0812 
    123 H123       28.4267   -1.1782   -9.8612 H         1 UNK         0.0812 
    124 H124       29.5837   -1.7171  -11.0693 H         1 UNK         0.0812 
    125 H125       29.5368    0.3616   -8.0273 H         1 UNK         0.3205 
    126 H126       30.7269    0.0112   -6.1303 H         1 UNK         0.0754 
    127 H127       32.3821    1.8531   -5.8311 H         1 UNK         0.0769 
    128 H128       30.9699    2.4269   -6.7024 H         1 UNK         0.0769 
    129 H129       32.4611    2.0862   -7.5730 H         1 UNK         0.0769 
    130 H130       31.2228   -2.2187   -7.1256 H         1 UNK         0.2981 
    131 H131       32.4134   -3.9803   -7.3472 H         1 UNK         0.0541 
    132 H132       33.2628   -1.6173   -9.3184 H         1 UNK         0.3459 
    133 H133       34.5935   -2.4217  -10.1144 H         1 UNK         0.3459 
    134 H134       34.1212   -4.5841   -5.7999 H         1 UNK         0.0612 
    135 H135       32.9647   -3.5793   -4.9867 H         1 UNK         0.0612 
    136 H136       35.3621   -3.7905   -3.1807 H         1 UNK         0.0624 
    137 H137       35.9036   -2.1479   -2.9406 H         1 UNK         0.0624 
@<TRIPOS>BOND
     1    1    2 1    
     2    1   72 1    
     3    1   73 1    
     4    1   74 1    
     5    2    3 2    
     6    2    4 am   BACKBONE|DICT|INTERRES
     7    4    5 1    
     8    4   75 1    
     9    5    6 1    
    10    5   35 1    
    11    5   76 1    
    12    6    7 1    
    13    6   77 1    
    14    6   78 1    
    15    7    8 1    
    16    8    9 1    
    17    8   79 1    
    18    8   80 1    
    19    9   10 ar   
    20    9   14 ar   
    21   10   11 ar   
    22   10   81 1    
    23   11   12 ar   
    24   11   71 1    
    25   12   13 ar   
    26   12   82 1    
    27   13   14 ar   
    28   13   15 1    
    29   14   83 1    
    30   15   16 1    
    31   15   84 1    
    32   15   85 1    
    33   16   17 1    
    34   17   18 1    
    35   17   86 1    
    36   17   87 1    
    37   18   19 1    
    38   18   37 1    
    39   18   88 1    
    40   19   20 am   BACKBONE|DICT|INTERRES
    41   19   89 1    
    42   20   21 2    
    43   20   22 1    
    44   22   23 1    
    45   22   24 1    
    46   22   90 1    
    47   23   91 1    
    48   23   92 1    
    49   23   93 1    
    50   24   25 am   BACKBONE|DICT|INTERRES
    51   24   94 1    
    52   25   26 2    
    53   25   27 1    
    54   27   28 1    
    55   27   29 1    
    56   27   95 1    
    57   28   96 1    
    58   28   97 1    
    59   28   98 1    
    60   29   30 am   BACKBONE|DICT|INTERRES
    61   29   99 1    
    62   30   31 2    
    63   30   32 1    
    64   32   33 1    
    65   32   34 1    
    66   32  100 1    
    67   33  101 1    
    68   33  102 1    
    69   33  103 1    
    70   34   35 am   BACKBONE|DICT|INTERRES
    71   34  104 1    
    72   35   36 2    
    73   37   38 2    
    74   37   39 am   BACKBONE|DICT|INTERRES
    75   39   40 1    
    76   39  105 1    
    77   40   41 1    
    78   40   42 1    
    79   40  106 1    
    80   41  107 1    
    81   41  108 1    
    82   41  109 1    
    83   42   43 2    
    84   42   44 am   BACKBONE|DICT|INTERRES
    85   44   45 1    
    86   44  110 1    
    87   45   46 1    
    88   45   47 1    
    89   45  111 1    
    90   46  112 1    
    91   46  113 1    
    92   46  114 1    
    93   47   48 2    
    94   47   49 am   BACKBONE|DICT|INTERRES
    95   49   50 1    
    96   49  115 1    
    97   50   51 1    
    98   50   52 1    
    99   50  116 1    
   100   51  117 1    
   101   51  118 1    
   102   51  119 1    
   103   52   53 2    
   104   52   54 am   BACKBONE|DICT|INTERRES
   105   54   55 1    
   106   54  120 1    
   107   55   56 1    
   108   55   57 1    
   109   55  121 1    
   110   56  122 1    
   111   56  123 1    
   112   56  124 1    
   113   57   58 2    
   114   57   59 am   BACKBONE|DICT|INTERRES
   115   59   60 1    
   116   59  125 1    
   117   60   61 1    
   118   60   62 1    
   119   60  126 1    
   120   61  127 1    
   121   61  128 1    
   122   61  129 1    
   123   62   63 2    
   124   62   64 am   BACKBONE|DICT|INTERRES
   125   64   65 1    
   126   64  130 1    
   127   65   66 1    
   128   65   69 1    
   129   65  131 1    
   130   66   67 am   BACKBONE|DICT|INTERRES
   131   66   68 2    
   132   67  132 1    
   133   67  133 1    
   134   69   70 1    
   135   69  134 1    
   136   69  135 1    
   137   70   71 1    
   138   71  136 1    
   139   71  137 1    
@<TRIPOS>SUBSTRUCTURE
     1 UNK         1 GROUP             0       ****    0 ROOT    
