@<TRIPOS>MOLECULE
3R137
137   139    1
SMALL
USER_CHARGES


@<TRIPOS>ATOM
      1 CA         25.4807   -1.1851   -7.6101 C.3       0 UNK        -0.2020 
      2 C          25.8025   -2.5198   -6.9560 C.2       0 UNK         0.4855 
      3 O          25.5762   -3.5720   -7.5535 O.2       0 UNK        -0.5197 
      4 N          26.3169   -2.4894   -5.7220 N.am      1 UNK        -0.4892 
      5 CA         26.7204   -3.6552   -4.9342 C.3       1 UNK         0.0835 
      6 C6         27.8733   -3.2883   -3.9655 C.3       12 UNK        -0.0855 
      7 S7         28.8310   -4.7526   -3.4420 S.3       12 UNK        -0.2931 
      8 C8         30.5250   -4.3152   -3.9733 C.3       12 UNK         0.0378 
      9 C9         31.0466   -3.0018   -3.3904 C.ar      12 UNK        -0.0802 
     10 C10        31.8757   -2.1840   -4.1659 C.ar      12 UNK        -0.0944 
     11 C11        32.3618   -0.9748   -3.6586 C.ar      12 UNK        -0.0787 
     12 C12        32.0044   -0.5763   -2.3674 C.ar      12 UNK        -0.0862 
     13 C13        31.1823   -1.3862   -1.5785 C.ar      12 UNK        -0.0733 
     14 C14        30.7220   -2.6020   -2.0885 C.ar      12 UNK        -0.0832 
     15 C15        30.7921   -0.9585   -0.1711 C.3       12 UNK         0.0240 
     16 S16        29.0451   -0.4490   -0.0747 S.3       12 UNK        -0.2522 
     17 C17        29.0392    1.0464   -1.1202 C.3       12 UNK        -0.0967 
     18 CA         28.1970    0.8701   -2.4127 C.3       5 UNK         0.0660 
     19 N          26.7864    0.5979   -2.0917 N.am      5 UNK        -0.4015 
     20 C          25.8609    0.0871   -2.9130 C.2       4 UNK         0.4946 
     21 O          26.0938   -0.2628   -4.0759 O.2       4 UNK        -0.5353 
     22 CA         24.4260    0.0231   -2.3734 C.3       4 UNK         0.0277 
     23 CB         23.8679    1.4505   -2.1775 C.3       4 UNK        -0.1981 
     24 N          23.6099   -0.7172   -3.3334 N.am      4 UNK        -0.4209 
     25 C          22.3379   -1.1046   -3.1789 C.2       3 UNK         0.4942 
     26 O          21.6798   -0.9270   -2.1532 O.2       3 UNK        -0.5208 
     27 CA         21.6920   -1.8112   -4.3812 C.3       3 UNK         0.0250 
     28 CB         21.6027   -0.8759   -5.6007 C.3       3 UNK        -0.1990 
     29 N          22.4256   -3.0236   -4.7412 N.am      3 UNK        -0.4232 
     30 C          22.3228   -4.1954   -4.0979 C.2       2 UNK         0.4993 
     31 O          21.5322   -4.4110   -3.1786 O.2       2 UNK        -0.5286 
     32 CA         23.2704   -5.3185   -4.5559 C.3       2 UNK         0.0209 
     33 CB         22.6222   -6.1553   -5.6708 C.3       2 UNK        -0.1931 
     34 N          24.5668   -4.8128   -5.0175 N.am      2 UNK        -0.4546 
     35 C          25.4833   -4.2419   -4.2238 C.2       1 UNK         0.5154 
     36 O          25.3430   -4.1241   -3.0050 O.2       1 UNK        -0.5181 
     37 C          28.3584    2.0809   -3.3697 C.2       5 UNK         0.5014 
     38 O          29.1425    2.9913   -3.0922 O.2       5 UNK        -0.5248 
     39 N          27.5942    2.0904   -4.4662 N.am      6 UNK        -0.4434 
     40 CA         27.6461    3.0854   -5.5326 C.3       6 UNK         0.0363 
     41 CB         26.2666    3.1499   -6.2094 C.3       6 UNK        -0.1936 
     42 C          28.7211    2.7026   -6.5569 C.2       6 UNK         0.5081 
     43 O          29.0081    1.5161   -6.7265 O.2       6 UNK        -0.5248 
     44 N          29.2376    3.7036   -7.2847 N.am      7 UNK        -0.4718 
     45 CA         30.2679    3.5544   -8.3247 C.3       7 UNK         0.0273 
     46 CB         30.6302    4.9367   -8.8886 C.3       7 UNK        -0.1935 
     47 C          29.8992    2.5865   -9.4654 C.2       7 UNK         0.5018 
     48 O          30.7982    2.0115  -10.0806 O.2       7 UNK        -0.5186 
     49 N          28.5918    2.3666   -9.6725 N.am      8 UNK        -0.4240 
     50 CA         28.0053    1.3432  -10.5441 C.3       8 UNK         0.0235 
     51 CB         26.4736    1.4700  -10.4977 C.3       8 UNK        -0.2000 
     52 C          28.4338   -0.1019  -10.2129 C.2       8 UNK         0.4941 
     53 O          28.3487   -0.9615  -11.0897 O.2       8 UNK        -0.5273 
     54 N          28.9257   -0.3438   -8.9873 N.am      9 UNK        -0.4262 
     55 CA         29.5649   -1.5938   -8.5653 C.3       9 UNK         0.0264 
     56 CB         29.5823   -1.6410   -7.0296 C.3       9 UNK        -0.1955 
     57 C          30.9940   -1.7837   -9.1231 C.2       9 UNK         0.5031 
     58 O          31.6204   -2.7937   -8.7997 O.2       9 UNK        -0.5390 
     59 N          31.4860   -0.8249   -9.9254 N.am      10 UNK        -0.4204 
     60 CA         32.8231   -0.7340  -10.5207 C.3       10 UNK         0.0237 
     61 CB         33.1454   -1.9524  -11.4139 C.3       10 UNK        -0.1985 
     62 C          33.8966   -0.4391   -9.4600 C.2       10 UNK         0.4970 
     63 O          34.9365   -1.0997   -9.4257 O.2       10 UNK        -0.4914 
     64 N          33.6173    0.5619   -8.6150 N.am      11 UNK        -0.4285 
     65 CA         34.5198    1.0377   -7.5535 C.3       11 UNK         0.1007 
     66 C          35.7501    1.8464   -8.0606 C.2       11 UNK         0.5703 
     67 N          35.7956    2.2788   -9.3156 N.am      11 UNK        -0.7361 
     68 O          36.6861    2.0792   -7.2994 O.2       11 UNK        -0.4986 
     69 C69        33.7617    1.8266   -6.4524 C.3       12 UNK        -0.0947 
     70 S70        32.3874    0.8917   -5.7039 S.3       12 UNK        -0.2240 
     71 C71        33.2967   -0.1136   -4.4938 C.3       12 UNK         0.0194 
     72 H72        25.9594   -1.1276   -8.5869 H         1 UNK         0.0906 
     73 H73        24.4056   -1.0817   -7.7517 H         1 UNK         0.0906 
     74 H74        25.8326   -0.3448   -7.0115 H         1 UNK         0.0906 
     75 H75        26.3908   -1.5984   -5.2302 H         1 UNK         0.3140 
     76 H76        27.0951   -4.4170   -5.6224 H         1 UNK         0.1085 
     77 H77        27.5143   -2.7535   -3.0839 H         1 UNK         0.0836 
     78 H78        28.5530   -2.5923   -4.4573 H         1 UNK         0.0836 
     79 H79        30.5451   -4.2829   -5.0634 H         1 UNK         0.0731 
     80 H80        31.2012   -5.1181   -3.6773 H         1 UNK         0.0731 
     81 H81        32.1469   -2.4861   -5.1687 H         1 UNK         0.1312 
     82 H82        32.3735    0.3614   -1.9748 H         1 UNK         0.1406 
     83 H83        30.0913   -3.2266   -1.4708 H         1 UNK         0.1631 
     84 H84        31.4274   -0.1441    0.1809 H         1 UNK         0.0717 
     85 H85        30.9549   -1.7900    0.5161 H         1 UNK         0.0717 
     86 H86        28.6574    1.8786   -0.5258 H         1 UNK         0.0934 
     87 H87        30.0699    1.3091   -1.3636 H         1 UNK         0.0934 
     88 H88        28.5911    0.0045   -2.9510 H         1 UNK         0.0739 
     89 H89        26.5016    0.8668   -1.1614 H         1 UNK         0.3093 
     90 H90        24.4318   -0.5157   -1.4239 H         1 UNK         0.0818 
     91 H91        24.4763    2.0273   -1.4803 H         1 UNK         0.0819 
     92 H92        23.8403    2.0017   -3.1185 H         1 UNK         0.0819 
     93 H93        22.8571    1.4383   -1.7707 H         1 UNK         0.0819 
     94 H94        24.1016   -0.9249   -4.1926 H         1 UNK         0.3041 
     95 H95        20.6735   -2.0879   -4.0990 H         1 UNK         0.0784 
     96 H96        21.0622    0.0380   -5.3499 H         1 UNK         0.0793 
     97 H97        22.5853   -0.5812   -5.9701 H         1 UNK         0.0793 
     98 H98        21.0666   -1.3508   -6.4227 H         1 UNK         0.0793 
     99 H99        23.0979   -2.9533   -5.4899 H         1 UNK         0.3024 
    100 H100       23.4461   -5.9677   -3.6947 H         1 UNK         0.1171 
    101 H101       22.4419   -5.5634   -6.5691 H         1 UNK         0.0786 
    102 H102       23.2506   -7.0022   -5.9471 H         1 UNK         0.0786 
    103 H103       21.6615   -6.5586   -5.3471 H         1 UNK         0.0786 
    104 H104       24.7438   -4.8172   -6.0164 H         1 UNK         0.2977 
    105 H105       27.0145    1.2715   -4.6298 H         1 UNK         0.3127 
    106 H106       27.8835    4.0640   -5.1096 H         1 UNK         0.0770 
    107 H107       26.2464    3.9102   -6.9912 H         1 UNK         0.0814 
    108 H108       25.4862    3.4050   -5.4922 H         1 UNK         0.0814 
    109 H109       25.9971    2.1990   -6.6709 H         1 UNK         0.0814 
    110 H110       28.9266    4.6463   -7.0958 H         1 UNK         0.2983 
    111 H111       31.1529    3.1404   -7.8383 H         1 UNK         0.0947 
    112 H112       31.4127    4.8574   -9.6450 H         1 UNK         0.0806 
    113 H113       31.0054    5.5989   -8.1080 H         1 UNK         0.0806 
    114 H114       29.7718    5.4197   -9.3572 H         1 UNK         0.0806 
    115 H115       27.9448    2.8941   -9.1055 H         1 UNK         0.3000 
    116 H116       28.3401    1.5512  -11.5624 H         1 UNK         0.0850 
    117 H117       26.1457    2.4510  -10.8424 H         1 UNK         0.0810 
    118 H118       26.0861    1.3213   -9.4891 H         1 UNK         0.0810 
    119 H119       25.9991    0.7284  -11.1422 H         1 UNK         0.0810 
    120 H120       28.9460    0.4108   -8.3036 H         1 UNK         0.3040 
    121 H121       28.9564   -2.4257   -8.9258 H         1 UNK         0.0766 
    122 H122       29.8443   -2.6369   -6.6736 H         1 UNK         0.0812 
    123 H123       28.6125   -1.3839   -6.6092 H         1 UNK         0.0812 
    124 H124       30.3084   -0.9430   -6.6141 H         1 UNK         0.0812 
    125 H125       30.9087   -0.0036  -10.0760 H         1 UNK         0.3205 
    126 H126       32.7980    0.1410  -11.1722 H         1 UNK         0.0754 
    127 H127       34.0748   -1.7952  -11.9626 H         1 UNK         0.0769 
    128 H128       32.3597   -2.1233  -12.1498 H         1 UNK         0.0769 
    129 H129       33.2667   -2.8670  -10.8330 H         1 UNK         0.0769 
    130 H130       32.7417    1.0546   -8.7132 H         1 UNK         0.2981 
    131 H131       34.9402    0.1500   -7.0778 H         1 UNK         0.0541 
    132 H132       35.0345    2.0970   -9.9491 H         1 UNK         0.3459 
    133 H133       36.6013    2.7967   -9.6292 H         1 UNK         0.3459 
    134 H134       33.3536    2.7505   -6.8649 H         1 UNK         0.0612 
    135 H135       34.4424    2.1304   -5.6548 H         1 UNK         0.0612 
    136 H136       33.8844    0.5417   -3.8491 H         1 UNK         0.0624 
    137 H137       34.0092   -0.7526   -5.0170 H         1 UNK         0.0624 
@<TRIPOS>BOND
     1    1    2 1    
     2    1   72 1    
     3    1   73 1    
     4    1   74 1    
     5    2    3 2    
     6    2    4 am   BACKBONE|DICT|INTERRES
     7    4    5 1    
     8    4   75 1    
     9    5    6 1    
    10    5   35 1    
    11    5   76 1    
    12    6    7 1    
    13    6   77 1    
    14    6   78 1    
    15    7    8 1    
    16    8    9 1    
    17    8   79 1    
    18    8   80 1    
    19    9   10 ar   
    20    9   14 ar   
    21   10   11 ar   
    22   10   81 1    
    23   11   12 ar   
    24   11   71 1    
    25   12   13 ar   
    26   12   82 1    
    27   13   14 ar   
    28   13   15 1    
    29   14   83 1    
    30   15   16 1    
    31   15   84 1    
    32   15   85 1    
    33   16   17 1    
    34   17   18 1    
    35   17   86 1    
    36   17   87 1    
    37   18   19 1    
    38   18   37 1    
    39   18   88 1    
    40   19   20 am   BACKBONE|DICT|INTERRES
    41   19   89 1    
    42   20   21 2    
    43   20   22 1    
    44   22   23 1    
    45   22   24 1    
    46   22   90 1    
    47   23   91 1    
    48   23   92 1    
    49   23   93 1    
    50   24   25 am   BACKBONE|DICT|INTERRES
    51   24   94 1    
    52   25   26 2    
    53   25   27 1    
    54   27   28 1    
    55   27   29 1    
    56   27   95 1    
    57   28   96 1    
    58   28   97 1    
    59   28   98 1    
    60   29   30 am   BACKBONE|DICT|INTERRES
    61   29   99 1    
    62   30   31 2    
    63   30   32 1    
    64   32   33 1    
    65   32   34 1    
    66   32  100 1    
    67   33  101 1    
    68   33  102 1    
    69   33  103 1    
    70   34   35 am   BACKBONE|DICT|INTERRES
    71   34  104 1    
    72   35   36 2    
    73   37   38 2    
    74   37   39 am   BACKBONE|DICT|INTERRES
    75   39   40 1    
    76   39  105 1    
    77   40   41 1    
    78   40   42 1    
    79   40  106 1    
    80   41  107 1    
    81   41  108 1    
    82   41  109 1    
    83   42   43 2    
    84   42   44 am   BACKBONE|DICT|INTERRES
    85   44   45 1    
    86   44  110 1    
    87   45   46 1    
    88   45   47 1    
    89   45  111 1    
    90   46  112 1    
    91   46  113 1    
    92   46  114 1    
    93   47   48 2    
    94   47   49 am   BACKBONE|DICT|INTERRES
    95   49   50 1    
    96   49  115 1    
    97   50   51 1    
    98   50   52 1    
    99   50  116 1    
   100   51  117 1    
   101   51  118 1    
   102   51  119 1    
   103   52   53 2    
   104   52   54 am   BACKBONE|DICT|INTERRES
   105   54   55 1    
   106   54  120 1    
   107   55   56 1    
   108   55   57 1    
   109   55  121 1    
   110   56  122 1    
   111   56  123 1    
   112   56  124 1    
   113   57   58 2    
   114   57   59 am   BACKBONE|DICT|INTERRES
   115   59   60 1    
   116   59  125 1    
   117   60   61 1    
   118   60   62 1    
   119   60  126 1    
   120   61  127 1    
   121   61  128 1    
   122   61  129 1    
   123   62   63 2    
   124   62   64 am   BACKBONE|DICT|INTERRES
   125   64   65 1    
   126   64  130 1    
   127   65   66 1    
   128   65   69 1    
   129   65  131 1    
   130   66   67 am   BACKBONE|DICT|INTERRES
   131   66   68 2    
   132   67  132 1    
   133   67  133 1    
   134   69   70 1    
   135   69  134 1    
   136   69  135 1    
   137   70   71 1    
   138   71  136 1    
   139   71  137 1    
@<TRIPOS>SUBSTRUCTURE
     1 UNK         1 GROUP             0       ****    0 ROOT    
