@<TRIPOS>MOLECULE
3R137
137   139    1
SMALL
USER_CHARGES


@<TRIPOS>ATOM
      1 CA         28.0586   -6.1712   -8.0750 C.3       0 UNK        -0.2020 
      2 C          27.6432   -6.1754   -6.6119 C.2       0 UNK         0.4855 
      3 O          27.1611   -7.1924   -6.1136 O.2       0 UNK        -0.5197 
      4 N          27.8221   -5.0429   -5.9198 N.am      1 UNK        -0.4892 
      5 CA         27.5245   -4.8694   -4.4886 C.3       1 UNK         0.0835 
      6 C6         28.3129   -3.6781   -3.8898 C.3       12 UNK        -0.0855 
      7 S7         30.1097   -3.9786   -3.9854 S.3       12 UNK        -0.2931 
      8 C8         30.7088   -3.1958   -2.4537 C.3       12 UNK         0.0378 
      9 C9         30.7029   -1.6757   -2.5434 C.ar      12 UNK        -0.0802 
     10 C10        31.4372   -1.0337   -3.5455 C.ar      12 UNK        -0.0944 
     11 C11        31.4637    0.3600   -3.6268 C.ar      12 UNK        -0.0787 
     12 C12        30.7716    1.1147   -2.6783 C.ar      12 UNK        -0.0862 
     13 C13        30.0041    0.4878   -1.6913 C.ar      12 UNK        -0.0733 
     14 C14        29.9792   -0.9093   -1.6232 C.ar      12 UNK        -0.0832 
     15 C15        29.1789    1.3244   -0.7217 C.3       12 UNK         0.0240 
     16 S16        27.4447    1.4947   -1.2696 S.3       12 UNK        -0.2522 
     17 C17        27.6426    2.2866   -2.9022 C.3       12 UNK        -0.0967 
     18 CA         27.5111    1.2324   -4.0412 C.3       5 UNK         0.0660 
     19 N          26.1106    0.8923   -4.3194 N.am      5 UNK        -0.4015 
     20 C          25.2008    1.6538   -4.9471 C.2       4 UNK         0.4946 
     21 O          25.4708    2.7245   -5.4956 O.2       4 UNK        -0.5353 
     22 CA         23.7398    1.1579   -4.9731 C.3       4 UNK         0.0277 
     23 CB         23.1848    1.1048   -6.4069 C.3       4 UNK        -0.1981 
     24 N          23.5201   -0.1415   -4.3292 N.am      4 UNK        -0.4209 
     25 C          23.4550   -0.3584   -3.0106 C.2       3 UNK         0.4942 
     26 O          23.6615    0.5192   -2.1730 O.2       3 UNK        -0.5208 
     27 CA         23.1056   -1.7794   -2.5240 C.3       3 UNK         0.0250 
     28 CB         21.5985   -1.8859   -2.2203 C.3       3 UNK        -0.1990 
     29 N          23.5428   -2.8973   -3.3780 N.am      3 UNK        -0.4232 
     30 C          23.1760   -3.2179   -4.6265 C.2       2 UNK         0.4993 
     31 O          22.4609   -2.5049   -5.3323 O.2       2 UNK        -0.5286 
     32 CA         23.7197   -4.5496   -5.1816 C.3       2 UNK         0.0209 
     33 CB         23.1769   -4.8655   -6.5886 C.3       2 UNK        -0.1931 
     34 N          25.1830   -4.6004   -5.2297 N.am      2 UNK        -0.4546 
     35 C          26.0133   -4.7503   -4.1884 C.2       1 UNK         0.5154 
     36 O          25.6230   -4.7992   -3.0204 O.2       1 UNK        -0.5181 
     37 C          28.2749    1.5788   -5.3352 C.2       5 UNK         0.5014 
     38 O          28.4998    0.6784   -6.1435 O.2       5 UNK        -0.5248 
     39 N          28.6283    2.8561   -5.5395 N.am      6 UNK        -0.4434 
     40 CA         29.3534    3.3522   -6.7150 C.3       6 UNK         0.0363 
     41 CB         29.7151    4.8297   -6.4954 C.3       6 UNK        -0.1936 
     42 C          28.6098    3.1682   -8.0524 C.2       6 UNK         0.5081 
     43 O          29.2546    3.1725   -9.1011 O.2       6 UNK        -0.5248 
     44 N          27.2804    3.0056   -8.0042 N.am      7 UNK        -0.4718 
     45 CA         26.4574    2.6621   -9.1649 C.3       7 UNK         0.0273 
     46 CB         25.0979    3.3667   -9.0377 C.3       7 UNK        -0.1935 
     47 C          26.2841    1.1408   -9.3423 C.2       7 UNK         0.5018 
     48 O          25.7949    0.7255  -10.3936 O.2       7 UNK        -0.5186 
     49 N          26.6708    0.3376   -8.3392 N.am      8 UNK        -0.4240 
     50 CA         26.6041   -1.1250   -8.3744 C.3       8 UNK         0.0235 
     51 CB         26.1406   -1.6647   -7.0107 C.3       8 UNK        -0.2000 
     52 C          27.9520   -1.7535   -8.7569 C.2       8 UNK         0.4941 
     53 O          27.9541   -2.7637   -9.4609 O.2       8 UNK        -0.5273 
     54 N          29.0645   -1.1754   -8.2862 N.am      9 UNK        -0.4262 
     55 CA         30.4219   -1.6561   -8.5348 C.3       9 UNK         0.0264 
     56 CB         30.8553   -2.5741   -7.3787 C.3       9 UNK        -0.1955 
     57 C          31.3829   -0.4707   -8.6667 C.2       9 UNK         0.5031 
     58 O          31.1664    0.5687   -8.0432 O.2       9 UNK        -0.5390 
     59 N          32.4569   -0.6650   -9.4396 N.am      10 UNK        -0.4204 
     60 CA         33.5436    0.2976   -9.6168 C.3       10 UNK         0.0237 
     61 CB         33.9911    0.2826  -11.0912 C.3       10 UNK        -0.1985 
     62 C          34.6868   -0.0503   -8.6501 C.2       10 UNK         0.4970 
     63 O          35.6992   -0.6133   -9.0707 O.2       10 UNK        -0.4914 
     64 N          34.4843    0.2534   -7.3625 N.am      11 UNK        -0.4285 
     65 CA         35.4540    0.0033   -6.2809 C.3       11 UNK         0.1007 
     66 C          36.6948    0.9464   -6.2654 C.2       11 UNK         0.5703 
     67 N          36.7260    2.0218   -7.0441 N.am      11 UNK        -0.7361 
     68 O          37.6544    0.6860   -5.5432 O.2       11 UNK        -0.4986 
     69 C69        34.7615   -0.0902   -4.8940 C.3       12 UNK        -0.0947 
     70 S70        33.9122    1.4440   -4.3810 S.3       12 UNK        -0.2240 
     71 C71        32.1811    1.0554   -4.7721 C.3       12 UNK         0.0194 
     72 H72        27.1880   -6.3189   -8.7134 H         1 UNK         0.0906 
     73 H73        28.5340   -5.2336   -8.3625 H         1 UNK         0.0906 
     74 H74        28.7639   -6.9792   -8.2673 H         1 UNK         0.0906 
     75 H75        28.2554   -4.2499   -6.3703 H         1 UNK         0.3140 
     76 H76        27.8512   -5.7744   -3.9706 H         1 UNK         0.1085 
     77 H77        28.0814   -2.7470   -4.4106 H         1 UNK         0.0836 
     78 H78        28.0393   -3.5218   -2.8443 H         1 UNK         0.0836 
     79 H79        30.1181   -3.5477   -1.6065 H         1 UNK         0.0731 
     80 H80        31.7316   -3.5280   -2.2708 H         1 UNK         0.0731 
     81 H81        31.9720   -1.6269   -4.2734 H         1 UNK         0.1312 
     82 H82        30.8013    2.1938   -2.7366 H         1 UNK         0.1406 
     83 H83        29.3915   -1.3962   -0.8565 H         1 UNK         0.1631 
     84 H84        29.6187    2.3157   -0.6011 H         1 UNK         0.0717 
     85 H85        29.1938    0.8639    0.2672 H         1 UNK         0.0717 
     86 H86        26.8910    3.0714   -3.0039 H         1 UNK         0.0934 
     87 H87        28.6024    2.8017   -2.9114 H         1 UNK         0.0934 
     88 H88        27.9767    0.3054   -3.7022 H         1 UNK         0.0739 
     89 H89        25.7853    0.0291   -3.9119 H         1 UNK         0.3093 
     90 H90        23.1535    1.8968   -4.4227 H         1 UNK         0.0818 
     91 H91        22.2033    0.6310   -6.4404 H         1 UNK         0.0819 
     92 H92        23.0593    2.1112   -6.8044 H         1 UNK         0.0819 
     93 H93        23.8426    0.5626   -7.0856 H         1 UNK         0.0819 
     94 H94        23.2576   -0.9210   -4.9300 H         1 UNK         0.3041 
     95 H95        23.6383   -1.9135   -1.5810 H         1 UNK         0.0784 
     96 H96        21.2867   -1.1152   -1.5138 H         1 UNK         0.0793 
     97 H97        20.9930   -1.7647   -3.1193 H         1 UNK         0.0793 
     98 H98        21.3504   -2.8500   -1.7762 H         1 UNK         0.0793 
     99 H99        24.2049   -3.5359   -2.9419 H         1 UNK         0.3024 
    100 H100       23.3713   -5.3363   -4.5082 H         1 UNK         0.1171 
    101 H101       22.0861   -4.8814   -6.5932 H         1 UNK         0.0786 
    102 H102       23.5132   -5.8435   -6.9339 H         1 UNK         0.0786 
    103 H103       23.4953   -4.1224   -7.3211 H         1 UNK         0.0786 
    104 H104       25.6010   -4.5817   -6.1476 H         1 UNK         0.2977 
    105 H105       28.3443    3.5494   -4.8632 H         1 UNK         0.3127 
    106 H106       30.2811    2.7827   -6.7929 H         1 UNK         0.0770 
    107 H107       28.8253    5.4509   -6.3862 H         1 UNK         0.0814 
    108 H108       30.2837    5.2212   -7.3402 H         1 UNK         0.0814 
    109 H109       30.3313    4.9607   -5.6057 H         1 UNK         0.0814 
    110 H110       26.8115    3.0295   -7.1034 H         1 UNK         0.2983 
    111 H111       26.9324    3.0303  -10.0771 H         1 UNK         0.0947 
    112 H112       24.4318    3.0962   -9.8581 H         1 UNK         0.0806 
    113 H113       25.2139    4.4504   -9.0599 H         1 UNK         0.0806 
    114 H114       24.5975    3.1075   -8.1072 H         1 UNK         0.0806 
    115 H115       27.1449    0.7437   -7.5390 H         1 UNK         0.3000 
    116 H116       25.8713   -1.4439   -9.1191 H         1 UNK         0.0850 
    117 H117       26.0973   -2.7524   -7.0333 H         1 UNK         0.0810 
    118 H118       26.8166   -1.3811   -6.2043 H         1 UNK         0.0810 
    119 H119       25.1425   -1.3129   -6.7560 H         1 UNK         0.0810 
    120 H120       29.0002   -0.3520   -7.6895 H         1 UNK         0.3040 
    121 H121       30.4494   -2.2177   -9.4712 H         1 UNK         0.0766 
    122 H122       30.2295   -3.4640   -7.3215 H         1 UNK         0.0812 
    123 H123       30.7920   -2.0597   -6.4189 H         1 UNK         0.0812 
    124 H124       31.8851   -2.9115   -7.5022 H         1 UNK         0.0812 
    125 H125       32.5856   -1.5669   -9.8770 H         1 UNK         0.3205 
    126 H126       33.2010    1.3088   -9.3853 H         1 UNK         0.0754 
    127 H127       34.8133    0.9803  -11.2562 H         1 UNK         0.0769 
    128 H128       33.1772    0.5806  -11.7527 H         1 UNK         0.0769 
    129 H129       34.3320   -0.7046  -11.4058 H         1 UNK         0.0769 
    130 H130       33.6251    0.7128   -7.0970 H         1 UNK         0.2981 
    131 H131       35.8707   -0.9881   -6.4696 H         1 UNK         0.0541 
    132 H132       35.9442    2.2483   -7.6364 H         1 UNK         0.3459 
    133 H133       37.5379    2.6187   -7.0279 H         1 UNK         0.3459 
    134 H134       35.4896   -0.3458   -4.1222 H         1 UNK         0.0612 
    135 H135       34.0512   -0.9163   -4.8994 H         1 UNK         0.0612 
    136 H136       32.1304    0.4376   -5.6672 H         1 UNK         0.0624 
    137 H137       31.6660    1.9848   -5.0168 H         1 UNK         0.0624 
@<TRIPOS>BOND
     1    1    2 1    
     2    1   72 1    
     3    1   73 1    
     4    1   74 1    
     5    2    3 2    
     6    2    4 am   BACKBONE|DICT|INTERRES
     7    4    5 1    
     8    4   75 1    
     9    5    6 1    
    10    5   35 1    
    11    5   76 1    
    12    6    7 1    
    13    6   77 1    
    14    6   78 1    
    15    7    8 1    
    16    8    9 1    
    17    8   79 1    
    18    8   80 1    
    19    9   10 ar   
    20    9   14 ar   
    21   10   11 ar   
    22   10   81 1    
    23   11   12 ar   
    24   11   71 1    
    25   12   13 ar   
    26   12   82 1    
    27   13   14 ar   
    28   13   15 1    
    29   14   83 1    
    30   15   16 1    
    31   15   84 1    
    32   15   85 1    
    33   16   17 1    
    34   17   18 1    
    35   17   86 1    
    36   17   87 1    
    37   18   19 1    
    38   18   37 1    
    39   18   88 1    
    40   19   20 am   BACKBONE|DICT|INTERRES
    41   19   89 1    
    42   20   21 2    
    43   20   22 1    
    44   22   23 1    
    45   22   24 1    
    46   22   90 1    
    47   23   91 1    
    48   23   92 1    
    49   23   93 1    
    50   24   25 am   BACKBONE|DICT|INTERRES
    51   24   94 1    
    52   25   26 2    
    53   25   27 1    
    54   27   28 1    
    55   27   29 1    
    56   27   95 1    
    57   28   96 1    
    58   28   97 1    
    59   28   98 1    
    60   29   30 am   BACKBONE|DICT|INTERRES
    61   29   99 1    
    62   30   31 2    
    63   30   32 1    
    64   32   33 1    
    65   32   34 1    
    66   32  100 1    
    67   33  101 1    
    68   33  102 1    
    69   33  103 1    
    70   34   35 am   BACKBONE|DICT|INTERRES
    71   34  104 1    
    72   35   36 2    
    73   37   38 2    
    74   37   39 am   BACKBONE|DICT|INTERRES
    75   39   40 1    
    76   39  105 1    
    77   40   41 1    
    78   40   42 1    
    79   40  106 1    
    80   41  107 1    
    81   41  108 1    
    82   41  109 1    
    83   42   43 2    
    84   42   44 am   BACKBONE|DICT|INTERRES
    85   44   45 1    
    86   44  110 1    
    87   45   46 1    
    88   45   47 1    
    89   45  111 1    
    90   46  112 1    
    91   46  113 1    
    92   46  114 1    
    93   47   48 2    
    94   47   49 am   BACKBONE|DICT|INTERRES
    95   49   50 1    
    96   49  115 1    
    97   50   51 1    
    98   50   52 1    
    99   50  116 1    
   100   51  117 1    
   101   51  118 1    
   102   51  119 1    
   103   52   53 2    
   104   52   54 am   BACKBONE|DICT|INTERRES
   105   54   55 1    
   106   54  120 1    
   107   55   56 1    
   108   55   57 1    
   109   55  121 1    
   110   56  122 1    
   111   56  123 1    
   112   56  124 1    
   113   57   58 2    
   114   57   59 am   BACKBONE|DICT|INTERRES
   115   59   60 1    
   116   59  125 1    
   117   60   61 1    
   118   60   62 1    
   119   60  126 1    
   120   61  127 1    
   121   61  128 1    
   122   61  129 1    
   123   62   63 2    
   124   62   64 am   BACKBONE|DICT|INTERRES
   125   64   65 1    
   126   64  130 1    
   127   65   66 1    
   128   65   69 1    
   129   65  131 1    
   130   66   67 am   BACKBONE|DICT|INTERRES
   131   66   68 2    
   132   67  132 1    
   133   67  133 1    
   134   69   70 1    
   135   69  134 1    
   136   69  135 1    
   137   70   71 1    
   138   71  136 1    
   139   71  137 1    
@<TRIPOS>SUBSTRUCTURE
     1 UNK         1 GROUP             0       ****    0 ROOT    
