@<TRIPOS>MOLECULE
3R137
137   139    1
SMALL
USER_CHARGES


@<TRIPOS>ATOM
      1 CA         29.4338    0.0657    3.1674 C.3       0 UNK        -0.2020 
      2 C          28.8560    0.0742    1.7599 C.2       0 UNK         0.4855 
      3 O          27.9810    0.8882    1.4616 O.2       0 UNK        -0.5197 
      4 N          29.3440   -0.8180    0.8901 N.am      1 UNK        -0.4892 
      5 CA         28.8562   -1.0074   -0.4792 C.3       1 UNK         0.0835 
      6 C6         29.9304   -1.6744   -1.3769 C.3       12 UNK        -0.0855 
      7 S7         30.5254   -3.2986   -0.7840 S.3       12 UNK        -0.2931 
      8 C8         29.7751   -4.4346   -2.0064 C.3       12 UNK         0.0378 
      9 C9         30.2241   -4.2245   -3.4551 C.ar      12 UNK        -0.0802 
     10 C10        31.4843   -3.6996   -3.7708 C.ar      12 UNK        -0.0944 
     11 C11        31.8806   -3.5423   -5.1001 C.ar      12 UNK        -0.0787 
     12 C12        31.0042   -3.9161   -6.1214 C.ar      12 UNK        -0.0862 
     13 C13        29.7394   -4.4391   -5.8357 C.ar      12 UNK        -0.0733 
     14 C14        29.3649   -4.6024   -4.4946 C.ar      12 UNK        -0.0832 
     15 C15        28.8550   -4.8470   -7.0187 C.3       12 UNK         0.0240 
     16 S16        27.0990   -5.2279   -6.6714 S.3       12 UNK        -0.2522 
     17 C17        26.4079   -3.6653   -6.0319 C.3       12 UNK        -0.0967 
     18 CA         26.2047   -2.5537   -7.0982 C.3       5 UNK         0.0660 
     19 N          24.9734   -1.7891   -6.8663 N.am      5 UNK        -0.4015 
     20 C          24.4993   -0.8367   -7.6864 C.2       4 UNK         0.4946 
     21 O          25.0127   -0.5425   -8.7653 O.2       4 UNK        -0.5353 
     22 CA         23.2699   -0.0393   -7.2181 C.3       4 UNK         0.0277 
     23 CB         21.9799   -0.6921   -7.7390 C.3       4 UNK        -0.1981 
     24 N          23.1764    0.1312   -5.7668 N.am      4 UNK        -0.4209 
     25 C          24.1052    0.6855   -4.9740 C.2       3 UNK         0.4942 
     26 O          25.1826    1.1254   -5.3785 O.2       3 UNK        -0.5208 
     27 CA         23.7996    0.7167   -3.4642 C.3       3 UNK         0.0250 
     28 CB         22.3002    0.5440   -3.1294 C.3       3 UNK        -0.1990 
     29 N          24.5922   -0.2555   -2.6991 N.am      3 UNK        -0.4232 
     30 C          24.7436   -1.5671   -2.9448 C.2       2 UNK         0.4993 
     31 O          24.3204   -2.1388   -3.9520 O.2       2 UNK        -0.5286 
     32 CA         25.5322   -2.3525   -1.8881 C.3       2 UNK         0.0209 
     33 CB         25.7260   -3.8433   -2.2359 C.3       2 UNK        -0.1931 
     34 N          26.8234   -1.7052   -1.6543 N.am      2 UNK        -0.4546 
     35 C          27.5112   -1.7685   -0.5079 C.2       1 UNK         0.5154 
     36 O          27.1289   -2.4032    0.4798 O.2       1 UNK        -0.5181 
     37 C          27.4224   -1.6123   -7.1418 C.2       5 UNK         0.5014 
     38 O          28.1700   -1.6114   -8.1204 O.2       5 UNK        -0.5248 
     39 N          27.5652   -0.7994   -6.0850 N.am      6 UNK        -0.4434 
     40 CA         28.6518    0.1624   -5.9257 C.3       6 UNK         0.0363 
     41 CB         28.6583    0.7155   -4.4932 C.3       6 UNK        -0.1936 
     42 C          28.5833    1.3013   -6.9478 C.2       6 UNK         0.5081 
     43 O          29.6321    1.7332   -7.4216 O.2       6 UNK        -0.5248 
     44 N          27.3660    1.7432   -7.2910 N.am      7 UNK        -0.4718 
     45 CA         27.1174    2.7396   -8.3336 C.3       7 UNK         0.0273 
     46 CB         25.6397    3.1593   -8.3098 C.3       7 UNK        -0.1935 
     47 C          27.5244    2.2460   -9.7327 C.2       7 UNK         0.5018 
     48 O          28.1689    2.9948  -10.4674 O.2       7 UNK        -0.5186 
     49 N          27.1626    0.9985  -10.0687 N.am      8 UNK        -0.4240 
     50 CA         27.5023    0.3577  -11.3411 C.3       8 UNK         0.0235 
     51 CB         26.6554   -0.9117  -11.5281 C.3       8 UNK        -0.2000 
     52 C          28.9984    0.0305  -11.4636 C.2       8 UNK         0.4941 
     53 O          29.5913    0.3010  -12.5087 O.2       8 UNK        -0.5273 
     54 N          29.5804   -0.5467  -10.4037 N.am      9 UNK        -0.4262 
     55 CA         30.9843   -0.9660  -10.3643 C.3       9 UNK         0.0264 
     56 CB         31.1400   -2.0591   -9.2985 C.3       9 UNK        -0.1955 
     57 C          31.9783    0.1822  -10.1079 C.2       9 UNK         0.5031 
     58 O          33.1762   -0.0197  -10.3127 O.2       9 UNK        -0.5390 
     59 N          31.4788    1.3431   -9.6574 N.am      10 UNK        -0.4204 
     60 CA         32.2253    2.5276   -9.2139 C.3       10 UNK         0.0237 
     61 CB         33.0477    3.1468  -10.3650 C.3       10 UNK        -0.1985 
     62 C          33.0533    2.2532   -7.9414 C.2       10 UNK         0.4970 
     63 O          34.1905    2.7158   -7.8307 O.2       10 UNK        -0.4914 
     64 N          32.4528    1.5116   -7.0025 N.am      11 UNK        -0.4285 
     65 CA         33.0190    1.1861   -5.6821 C.3       11 UNK         0.1007 
     66 C          32.6334    2.2147   -4.5808 C.2       11 UNK         0.5703 
     67 N          31.7502    3.1727   -4.8412 N.am      11 UNK        -0.7361 
     68 O          33.1566    2.1509   -3.4711 O.2       11 UNK        -0.4986 
     69 C69        32.6773   -0.2630   -5.2378 C.3       12 UNK        -0.0947 
     70 S70        33.2559   -1.5076   -6.4362 S.3       12 UNK        -0.2240 
     71 C71        33.2764   -3.0253   -5.4303 C.3       12 UNK         0.0194 
     72 H72        28.6475   -0.1375    3.8940 H         1 UNK         0.0906 
     73 H73        30.2085   -0.6918    3.2858 H         1 UNK         0.0906 
     74 H74        29.8707    1.0365    3.4001 H         1 UNK         0.0906 
     75 H75        30.0327   -1.4930    1.1931 H         1 UNK         0.3140 
     76 H76        28.6598   -0.0154   -0.8935 H         1 UNK         0.1085 
     77 H77        29.5710   -1.7704   -2.4015 H         1 UNK         0.0836 
     78 H78        30.7981   -1.0160   -1.4444 H         1 UNK         0.0836 
     79 H79        28.6909   -4.3421   -1.9345 H         1 UNK         0.0731 
     80 H80        30.0160   -5.4584   -1.7179 H         1 UNK         0.0731 
     81 H81        32.1716   -3.4278   -2.9822 H         1 UNK         0.1312 
     82 H82        31.3207   -3.8135   -7.1495 H         1 UNK         0.1406 
     83 H83        28.4071   -5.0386   -4.2498 H         1 UNK         0.1631 
     84 H84        29.2964   -5.7380   -7.4670 H         1 UNK         0.0717 
     85 H85        28.8980   -4.0797   -7.7908 H         1 UNK         0.0717 
     86 H86        25.4435   -3.9424   -5.6031 H         1 UNK         0.0934 
     87 H87        26.9983   -3.3185   -5.1839 H         1 UNK         0.0934 
     88 H88        26.1048   -3.0165   -8.0825 H         1 UNK         0.0739 
     89 H89        24.5107   -1.9367   -5.9739 H         1 UNK         0.3093 
     90 H90        23.3430    0.9583   -7.6532 H         1 UNK         0.0818 
     91 H91        21.1048   -0.0842   -7.5083 H         1 UNK         0.0819 
     92 H92        22.0127   -0.8092   -8.8233 H         1 UNK         0.0819 
     93 H93        21.8255   -1.6825   -7.3089 H         1 UNK         0.0819 
     94 H94        22.3438   -0.2308   -5.3250 H         1 UNK         0.3041 
     95 H95        24.1015    1.7070   -3.1195 H         1 UNK         0.0784 
     96 H96        21.6854    1.2614   -3.6752 H         1 UNK         0.0793 
     97 H97        21.9357   -0.4575   -3.3614 H         1 UNK         0.0793 
     98 H98        22.1182    0.7166   -2.0684 H         1 UNK         0.0793 
     99 H99        25.0250    0.1125   -1.8631 H         1 UNK         0.3024 
    100 H100       24.9354   -2.3005   -0.9741 H         1 UNK         0.1171 
    101 H101       24.7746   -4.3199   -2.4757 H         1 UNK         0.0786 
    102 H102       26.3860   -3.9785   -3.0899 H         1 UNK         0.0786 
    103 H103       26.1540   -4.3913   -1.3965 H         1 UNK         0.0786 
    104 H104       27.1857   -1.1571   -2.4209 H         1 UNK         0.2977 
    105 H105       26.8383   -0.7855   -5.3851 H         1 UNK         0.3127 
    106 H106       29.5859   -0.3744   -6.0980 H         1 UNK         0.0770 
    107 H107       27.7288    1.2340   -4.2542 H         1 UNK         0.0814 
    108 H108       29.4721    1.4280   -4.3541 H         1 UNK         0.0814 
    109 H109       28.8007   -0.0791   -3.7649 H         1 UNK         0.0814 
    110 H110       26.5593    1.3751   -6.7949 H         1 UNK         0.2983 
    111 H111       27.7246    3.6175   -8.1018 H         1 UNK         0.0947 
    112 H112       25.4551    3.9694   -9.0165 H         1 UNK         0.0806 
    113 H113       25.3413    3.5134   -7.3228 H         1 UNK         0.0806 
    114 H114       24.9831    2.3344   -8.5840 H         1 UNK         0.0806 
    115 H115       26.5951    0.4553   -9.4232 H         1 UNK         0.3000 
    116 H116       27.2490    1.0524  -12.1449 H         1 UNK         0.0850 
    117 H117       26.8908   -1.4052  -12.4719 H         1 UNK         0.0810 
    118 H118       25.5908   -0.6776  -11.5409 H         1 UNK         0.0810 
    119 H119       26.8272   -1.6333  -10.7280 H         1 UNK         0.0810 
    120 H120       29.0118   -0.7828   -9.5915 H         1 UNK         0.3040 
    121 H121       31.2419   -1.4034  -11.3313 H         1 UNK         0.0766 
    122 H122       30.8861   -1.6836   -8.3066 H         1 UNK         0.0812 
    123 H123       32.1663   -2.4266   -9.2584 H         1 UNK         0.0812 
    124 H124       30.4963   -2.9132   -9.5087 H         1 UNK         0.0812 
    125 H125       30.4838    1.3771   -9.4715 H         1 UNK         0.3205 
    126 H126       31.4711    3.2618   -8.9263 H         1 UNK         0.0754 
    127 H127       33.4732    4.1057  -10.0668 H         1 UNK         0.0769 
    128 H128       32.4266    3.3273  -11.2424 H         1 UNK         0.0769 
    129 H129       33.8766    2.5057  -10.6659 H         1 UNK         0.0769 
    130 H130       31.4827    1.2557   -7.1542 H         1 UNK         0.2981 
    131 H131       34.1066    1.2414   -5.7559 H         1 UNK         0.0541 
    132 H132       31.3124    3.2334   -5.7466 H         1 UNK         0.3459 
    133 H133       31.5196    3.8386   -4.1212 H         1 UNK         0.3459 
    134 H134       31.6049   -0.3875   -5.0920 H         1 UNK         0.0612 
    135 H135       33.1423   -0.4820   -4.2748 H         1 UNK         0.0612 
    136 H136       33.8105   -3.7984   -5.9841 H         1 UNK         0.0624 
    137 H137       33.8556   -2.8450   -4.5235 H         1 UNK         0.0624 
@<TRIPOS>BOND
     1    1    2 1    
     2    1   72 1    
     3    1   73 1    
     4    1   74 1    
     5    2    3 2    
     6    2    4 am   BACKBONE|DICT|INTERRES
     7    4    5 1    
     8    4   75 1    
     9    5    6 1    
    10    5   35 1    
    11    5   76 1    
    12    6    7 1    
    13    6   77 1    
    14    6   78 1    
    15    7    8 1    
    16    8    9 1    
    17    8   79 1    
    18    8   80 1    
    19    9   10 ar   
    20    9   14 ar   
    21   10   11 ar   
    22   10   81 1    
    23   11   12 ar   
    24   11   71 1    
    25   12   13 ar   
    26   12   82 1    
    27   13   14 ar   
    28   13   15 1    
    29   14   83 1    
    30   15   16 1    
    31   15   84 1    
    32   15   85 1    
    33   16   17 1    
    34   17   18 1    
    35   17   86 1    
    36   17   87 1    
    37   18   19 1    
    38   18   37 1    
    39   18   88 1    
    40   19   20 am   BACKBONE|DICT|INTERRES
    41   19   89 1    
    42   20   21 2    
    43   20   22 1    
    44   22   23 1    
    45   22   24 1    
    46   22   90 1    
    47   23   91 1    
    48   23   92 1    
    49   23   93 1    
    50   24   25 am   BACKBONE|DICT|INTERRES
    51   24   94 1    
    52   25   26 2    
    53   25   27 1    
    54   27   28 1    
    55   27   29 1    
    56   27   95 1    
    57   28   96 1    
    58   28   97 1    
    59   28   98 1    
    60   29   30 am   BACKBONE|DICT|INTERRES
    61   29   99 1    
    62   30   31 2    
    63   30   32 1    
    64   32   33 1    
    65   32   34 1    
    66   32  100 1    
    67   33  101 1    
    68   33  102 1    
    69   33  103 1    
    70   34   35 am   BACKBONE|DICT|INTERRES
    71   34  104 1    
    72   35   36 2    
    73   37   38 2    
    74   37   39 am   BACKBONE|DICT|INTERRES
    75   39   40 1    
    76   39  105 1    
    77   40   41 1    
    78   40   42 1    
    79   40  106 1    
    80   41  107 1    
    81   41  108 1    
    82   41  109 1    
    83   42   43 2    
    84   42   44 am   BACKBONE|DICT|INTERRES
    85   44   45 1    
    86   44  110 1    
    87   45   46 1    
    88   45   47 1    
    89   45  111 1    
    90   46  112 1    
    91   46  113 1    
    92   46  114 1    
    93   47   48 2    
    94   47   49 am   BACKBONE|DICT|INTERRES
    95   49   50 1    
    96   49  115 1    
    97   50   51 1    
    98   50   52 1    
    99   50  116 1    
   100   51  117 1    
   101   51  118 1    
   102   51  119 1    
   103   52   53 2    
   104   52   54 am   BACKBONE|DICT|INTERRES
   105   54   55 1    
   106   54  120 1    
   107   55   56 1    
   108   55   57 1    
   109   55  121 1    
   110   56  122 1    
   111   56  123 1    
   112   56  124 1    
   113   57   58 2    
   114   57   59 am   BACKBONE|DICT|INTERRES
   115   59   60 1    
   116   59  125 1    
   117   60   61 1    
   118   60   62 1    
   119   60  126 1    
   120   61  127 1    
   121   61  128 1    
   122   61  129 1    
   123   62   63 2    
   124   62   64 am   BACKBONE|DICT|INTERRES
   125   64   65 1    
   126   64  130 1    
   127   65   66 1    
   128   65   69 1    
   129   65  131 1    
   130   66   67 am   BACKBONE|DICT|INTERRES
   131   66   68 2    
   132   67  132 1    
   133   67  133 1    
   134   69   70 1    
   135   69  134 1    
   136   69  135 1    
   137   70   71 1    
   138   71  136 1    
   139   71  137 1    
@<TRIPOS>SUBSTRUCTURE
     1 UNK         1 GROUP             0       ****    0 ROOT    
