@<TRIPOS>MOLECULE
3R137
137   139    1
SMALL
USER_CHARGES


@<TRIPOS>ATOM
      1 CA         28.0497   -6.2566   -8.8400 C.3       0 UNK        -0.2020 
      2 C          27.5709   -6.1997   -7.3970 C.2       0 UNK         0.4855 
      3 O          27.1957   -7.2300   -6.8356 O.2       0 UNK        -0.5197 
      4 N          27.5864   -5.0073   -6.7924 N.am      1 UNK        -0.4892 
      5 CA         27.0621   -4.7415   -5.4523 C.3       1 UNK         0.0835 
      6 C6         27.7685   -3.5185   -4.8115 C.3       12 UNK        -0.0855 
      7 S7         27.7433   -3.6036   -2.9898 S.3       12 UNK        -0.2931 
      8 C8         29.5010   -3.8873   -2.5898 C.3       12 UNK         0.0378 
      9 C9         30.2669   -2.5810   -2.4246 C.ar      12 UNK        -0.0802 
     10 C10        31.3271   -2.2488   -3.2781 C.ar      12 UNK        -0.0944 
     11 C11        32.0416   -1.0586   -3.0899 C.ar      12 UNK        -0.0787 
     12 C12        31.6801   -0.2000   -2.0485 C.ar      12 UNK        -0.0862 
     13 C13        30.6050   -0.5060   -1.2116 C.ar      12 UNK        -0.0733 
     14 C14        29.9193   -1.7091   -1.3880 C.ar      12 UNK        -0.0832 
     15 C15        30.1575    0.4868   -0.1486 C.3       12 UNK         0.0240 
     16 S16        28.5737    1.2836   -0.5839 S.3       12 UNK        -0.2522 
     17 C17        28.8812    1.8643   -2.2893 C.3       12 UNK        -0.0967 
     18 CA         28.1561    0.9626   -3.3341 C.3       5 UNK         0.0660 
     19 N          26.6973    1.0713   -3.2376 N.am      5 UNK        -0.4015 
     20 C          25.9419    2.1332   -3.5464 C.2       4 UNK         0.4946 
     21 O          26.3807    3.1579   -4.0745 O.2       4 UNK        -0.5353 
     22 CA         24.4408    2.0249   -3.2044 C.3       4 UNK         0.0277 
     23 CB         23.7309    3.3909   -3.2616 C.3       4 UNK        -0.1981 
     24 N          23.7247    1.0878   -4.0730 N.am      4 UNK        -0.4209 
     25 C          23.8759   -0.2427   -4.0821 C.2       3 UNK         0.4942 
     26 O          24.6403   -0.8437   -3.3216 O.2       3 UNK        -0.5208 
     27 CA         23.0468   -1.0065   -5.1327 C.3       3 UNK         0.0250 
     28 CB         23.3628   -0.5035   -6.5534 C.3       3 UNK        -0.1990 
     29 N          23.3047   -2.4454   -5.0769 N.am      3 UNK        -0.4232 
     30 C          22.8322   -3.2917   -4.1551 C.2       2 UNK         0.4993 
     31 O          21.9925   -2.9786   -3.3093 O.2       2 UNK        -0.5286 
     32 CA         23.3925   -4.7284   -4.1567 C.3       2 UNK         0.0209 
     33 CB         22.5902   -5.6360   -5.1106 C.3       2 UNK        -0.1931 
     34 N          24.8433   -4.8330   -4.4011 N.am      2 UNK        -0.4546 
     35 C          25.5317   -4.5525   -5.5175 C.2       1 UNK         0.5154 
     36 O          25.0088   -4.1241   -6.5500 O.2       1 UNK        -0.5181 
     37 C          28.6197    1.1730   -4.7905 C.2       5 UNK         0.5014 
     38 O          28.3044    0.3449   -5.6482 O.2       5 UNK        -0.5248 
     39 N          29.3079    2.2945   -5.0529 N.am      6 UNK        -0.4434 
     40 CA         29.8291    2.7272   -6.3536 C.3       6 UNK         0.0363 
     41 CB         30.5827    4.0530   -6.1590 C.3       6 UNK        -0.1936 
     42 C          28.7762    2.8661   -7.4703 C.2       6 UNK         0.5081 
     43 O          29.1533    2.9171   -8.6408 O.2       6 UNK        -0.5248 
     44 N          27.4845    2.8994   -7.1092 N.am      7 UNK        -0.4718 
     45 CA         26.3472    2.8495   -8.0308 C.3       7 UNK         0.0273 
     46 CB         25.0453    3.0006   -7.2283 C.3       7 UNK        -0.1935 
     47 C          26.2943    1.5770   -8.9014 C.2       7 UNK         0.5018 
     48 O          25.7301    1.6369   -9.9948 O.2       7 UNK        -0.5186 
     49 N          26.8799    0.4659   -8.4295 N.am      8 UNK        -0.4240 
     50 CA         26.9988   -0.7831   -9.1825 C.3       8 UNK         0.0235 
     51 CB         25.6909   -1.5976   -9.1043 C.3       8 UNK        -0.2000 
     52 C          28.2193   -1.5745   -8.6965 C.2       8 UNK         0.4941 
     53 O          28.0804   -2.7324   -8.3007 O.2       8 UNK        -0.5273 
     54 N          29.4003   -0.9495   -8.7243 N.am      9 UNK        -0.4262 
     55 CA         30.6595   -1.5755   -8.3311 C.3       9 UNK         0.0264 
     56 CB         30.8292   -1.4902   -6.8059 C.3       9 UNK        -0.1955 
     57 C          31.8226   -0.8850   -9.0429 C.2       9 UNK         0.5031 
     58 O          31.6901    0.2670   -9.4635 O.2       9 UNK        -0.5390 
     59 N          32.9624   -1.5862   -9.1137 N.am      10 UNK        -0.4204 
     60 CA         34.2202   -1.1076   -9.7015 C.3       10 UNK         0.0237 
     61 CB         35.2347   -2.2622   -9.7324 C.3       10 UNK        -0.1985 
     62 C          34.8236    0.1198   -8.9924 C.2       10 UNK         0.4970 
     63 O          35.6050    0.8438   -9.6104 O.2       10 UNK        -0.4914 
     64 N          34.4402    0.3419   -7.7284 N.am      11 UNK        -0.4285 
     65 CA         34.7297    1.5618   -6.9656 C.3       11 UNK         0.1007 
     66 C          33.9654    2.8321   -7.4500 C.2       11 UNK         0.5703 
     67 N          32.9834    2.7296   -8.3399 N.am      11 UNK        -0.7361 
     68 O          34.2869    3.9375   -7.0215 O.2       11 UNK        -0.4986 
     69 C69        34.5862    1.3251   -5.4386 C.3       12 UNK        -0.0947 
     70 S70        32.9034    0.8525   -4.9046 S.3       12 UNK        -0.2240 
     71 C71        33.2183   -0.6895   -3.9846 C.3       12 UNK         0.0194 
     72 H72        28.8716   -6.9654   -8.9362 H         1 UNK         0.0906 
     73 H73        27.2390   -6.5819   -9.4912 H         1 UNK         0.0906 
     74 H74        28.3977   -5.2854   -9.1916 H         1 UNK         0.0906 
     75 H75        27.8186   -4.1757   -7.3406 H         1 UNK         0.3140 
     76 H76        27.2680   -5.6228   -4.8400 H         1 UNK         0.1085 
     77 H77        28.8096   -3.4848   -5.1309 H         1 UNK         0.0836 
     78 H78        27.3310   -2.5734   -5.1427 H         1 UNK         0.0836 
     79 H79        29.5568   -4.4422   -1.6522 H         1 UNK         0.0731 
     80 H80        29.9608   -4.5265   -3.3453 H         1 UNK         0.0731 
     81 H81        31.6034   -2.9212   -4.0783 H         1 UNK         0.1312 
     82 H82        32.2231    0.7253   -1.9111 H         1 UNK         0.1406 
     83 H83        29.0890   -1.9519   -0.7383 H         1 UNK         0.1631 
     84 H84        30.9130    1.2595    0.0024 H         1 UNK         0.0717 
     85 H85        30.0480   -0.0264    0.8077 H         1 UNK         0.0717 
     86 H86        28.5405    2.8988   -2.3595 H         1 UNK         0.0934 
     87 H87        29.9574    1.8935   -2.4626 H         1 UNK         0.0934 
     88 H88        28.3957   -0.0777   -3.1112 H         1 UNK         0.0739 
     89 H89        26.2078    0.2321   -2.9387 H         1 UNK         0.3093 
     90 H90        24.3701    1.6595   -2.1775 H         1 UNK         0.0818 
     91 H91        22.6956    3.3160   -2.9286 H         1 UNK         0.0819 
     92 H92        24.2260    4.1146   -2.6125 H         1 UNK         0.0819 
     93 H93        23.7311    3.8063   -4.2702 H         1 UNK         0.0819 
     94 H94        23.0828    1.5009   -4.7336 H         1 UNK         0.3041 
     95 H95        21.9882   -0.8375   -4.9244 H         1 UNK         0.0784 
     96 H96        22.9357   -1.1553   -7.3160 H         1 UNK         0.0793 
     97 H97        22.9522    0.4922   -6.7227 H         1 UNK         0.0793 
     98 H98        24.4378   -0.4431   -6.7244 H         1 UNK         0.0793 
     99 H99        23.9859   -2.8204   -5.7322 H         1 UNK         0.3024 
    100 H100       23.2413   -5.1104   -3.1453 H         1 UNK         0.1171 
    101 H101       22.6646   -5.3087   -6.1480 H         1 UNK         0.0786 
    102 H102       21.5315   -5.6343   -4.8480 H         1 UNK         0.0786 
    103 H103       22.9350   -6.6687   -5.0590 H         1 UNK         0.0786 
    104 H104       25.3838   -5.1066   -3.5909 H         1 UNK         0.2977 
    105 H105       29.4641    2.9351   -4.2894 H         1 UNK         0.3127 
    106 H106       30.5425    1.9716   -6.6879 H         1 UNK         0.0770 
    107 H107       29.9349    4.8296   -5.7509 H         1 UNK         0.0814 
    108 H108       30.9762    4.4252   -7.1055 H         1 UNK         0.0814 
    109 H109       31.4326    3.9304   -5.4869 H         1 UNK         0.0814 
    110 H110       27.2665    2.8817   -6.1192 H         1 UNK         0.2983 
    111 H111       26.4365    3.7011   -8.7084 H         1 UNK         0.0947 
    112 H112       24.1754    2.9975   -7.8865 H         1 UNK         0.0806 
    113 H113       25.0279    3.9375   -6.6711 H         1 UNK         0.0806 
    114 H114       24.9205    2.1854   -6.5161 H         1 UNK         0.0806 
    115 H115       27.3424    0.4904   -7.5238 H         1 UNK         0.3000 
    116 H116       27.1870   -0.5445  -10.2315 H         1 UNK         0.0850 
    117 H117       25.4983   -1.9471   -8.0906 H         1 UNK         0.0810 
    118 H118       24.8295   -1.0170   -9.4338 H         1 UNK         0.0810 
    119 H119       25.7472   -2.4819   -9.7401 H         1 UNK         0.0810 
    120 H120       29.4852   -0.0083   -9.0904 H         1 UNK         0.3040 
    121 H121       30.6516   -2.6237   -8.6387 H         1 UNK         0.0766 
    122 H122       30.0064   -1.9769   -6.2873 H         1 UNK         0.0812 
    123 H123       30.8523   -0.4552   -6.4682 H         1 UNK         0.0812 
    124 H124       31.7505   -1.9704   -6.4773 H         1 UNK         0.0812 
    125 H125       32.9755   -2.5234   -8.7367 H         1 UNK         0.3205 
    126 H126       34.0083   -0.8097  -10.7303 H         1 UNK         0.0754 
    127 H127       36.1720   -1.9467  -10.1932 H         1 UNK         0.0769 
    128 H128       34.8602   -3.1054  -10.3129 H         1 UNK         0.0769 
    129 H129       35.4698   -2.6207   -8.7297 H         1 UNK         0.0769 
    130 H130       33.7893   -0.2970   -7.2999 H         1 UNK         0.2981 
    131 H131       35.7831    1.7896   -7.1391 H         1 UNK         0.0541 
    132 H132       32.6853    1.8298   -8.7004 H         1 UNK         0.3459 
    133 H133       32.5173    3.5653   -8.6510 H         1 UNK         0.3459 
    134 H134       34.8776    2.2197   -4.8859 H         1 UNK         0.0612 
    135 H135       35.2916    0.5524   -5.1305 H         1 UNK         0.0612 
    136 H136       33.4449   -1.4901   -4.6898 H         1 UNK         0.0624 
    137 H137       34.1025   -0.5641   -3.3581 H         1 UNK         0.0624 
@<TRIPOS>BOND
     1    1    2 1    
     2    1   72 1    
     3    1   73 1    
     4    1   74 1    
     5    2    3 2    
     6    2    4 am   BACKBONE|DICT|INTERRES
     7    4    5 1    
     8    4   75 1    
     9    5    6 1    
    10    5   35 1    
    11    5   76 1    
    12    6    7 1    
    13    6   77 1    
    14    6   78 1    
    15    7    8 1    
    16    8    9 1    
    17    8   79 1    
    18    8   80 1    
    19    9   10 ar   
    20    9   14 ar   
    21   10   11 ar   
    22   10   81 1    
    23   11   12 ar   
    24   11   71 1    
    25   12   13 ar   
    26   12   82 1    
    27   13   14 ar   
    28   13   15 1    
    29   14   83 1    
    30   15   16 1    
    31   15   84 1    
    32   15   85 1    
    33   16   17 1    
    34   17   18 1    
    35   17   86 1    
    36   17   87 1    
    37   18   19 1    
    38   18   37 1    
    39   18   88 1    
    40   19   20 am   BACKBONE|DICT|INTERRES
    41   19   89 1    
    42   20   21 2    
    43   20   22 1    
    44   22   23 1    
    45   22   24 1    
    46   22   90 1    
    47   23   91 1    
    48   23   92 1    
    49   23   93 1    
    50   24   25 am   BACKBONE|DICT|INTERRES
    51   24   94 1    
    52   25   26 2    
    53   25   27 1    
    54   27   28 1    
    55   27   29 1    
    56   27   95 1    
    57   28   96 1    
    58   28   97 1    
    59   28   98 1    
    60   29   30 am   BACKBONE|DICT|INTERRES
    61   29   99 1    
    62   30   31 2    
    63   30   32 1    
    64   32   33 1    
    65   32   34 1    
    66   32  100 1    
    67   33  101 1    
    68   33  102 1    
    69   33  103 1    
    70   34   35 am   BACKBONE|DICT|INTERRES
    71   34  104 1    
    72   35   36 2    
    73   37   38 2    
    74   37   39 am   BACKBONE|DICT|INTERRES
    75   39   40 1    
    76   39  105 1    
    77   40   41 1    
    78   40   42 1    
    79   40  106 1    
    80   41  107 1    
    81   41  108 1    
    82   41  109 1    
    83   42   43 2    
    84   42   44 am   BACKBONE|DICT|INTERRES
    85   44   45 1    
    86   44  110 1    
    87   45   46 1    
    88   45   47 1    
    89   45  111 1    
    90   46  112 1    
    91   46  113 1    
    92   46  114 1    
    93   47   48 2    
    94   47   49 am   BACKBONE|DICT|INTERRES
    95   49   50 1    
    96   49  115 1    
    97   50   51 1    
    98   50   52 1    
    99   50  116 1    
   100   51  117 1    
   101   51  118 1    
   102   51  119 1    
   103   52   53 2    
   104   52   54 am   BACKBONE|DICT|INTERRES
   105   54   55 1    
   106   54  120 1    
   107   55   56 1    
   108   55   57 1    
   109   55  121 1    
   110   56  122 1    
   111   56  123 1    
   112   56  124 1    
   113   57   58 2    
   114   57   59 am   BACKBONE|DICT|INTERRES
   115   59   60 1    
   116   59  125 1    
   117   60   61 1    
   118   60   62 1    
   119   60  126 1    
   120   61  127 1    
   121   61  128 1    
   122   61  129 1    
   123   62   63 2    
   124   62   64 am   BACKBONE|DICT|INTERRES
   125   64   65 1    
   126   64  130 1    
   127   65   66 1    
   128   65   69 1    
   129   65  131 1    
   130   66   67 am   BACKBONE|DICT|INTERRES
   131   66   68 2    
   132   67  132 1    
   133   67  133 1    
   134   69   70 1    
   135   69  134 1    
   136   69  135 1    
   137   70   71 1    
   138   71  136 1    
   139   71  137 1    
@<TRIPOS>SUBSTRUCTURE
     1 UNK         1 GROUP             0       ****    0 ROOT    
