@<TRIPOS>MOLECULE
3R137
137   139    1
SMALL
USER_CHARGES


@<TRIPOS>ATOM
      1 CA         25.4148   -5.5365   -3.8308 C.3       0 UNK        -0.2020 
      2 C          25.8331   -4.2186   -3.1983 C.2       0 UNK         0.4855 
      3 O          25.6997   -3.1720   -3.8324 O.2       0 UNK        -0.5197 
      4 N          26.3339   -4.2621   -1.9559 N.am      1 UNK        -0.4892 
      5 CA         26.7685   -3.1311   -1.1203 C.3       1 UNK         0.0835 
      6 C6         27.7398   -2.1560   -1.8408 C.3       12 UNK        -0.0855 
      7 S7         28.9755   -1.4219   -0.7162 S.3       12 UNK        -0.2931 
      8 C8         30.3889   -2.5584   -0.9030 C.3       12 UNK         0.0378 
      9 C9         30.9486   -2.5522   -2.3186 C.ar      12 UNK        -0.0802 
     10 C10        31.7455   -1.4904   -2.7577 C.ar      12 UNK        -0.0944 
     11 C11        32.2453   -1.4761   -4.0629 C.ar      12 UNK        -0.0787 
     12 C12        31.9414   -2.5297   -4.9292 C.ar      12 UNK        -0.0862 
     13 C13        31.1451   -3.5952   -4.5029 C.ar      12 UNK        -0.0733 
     14 C14        30.6635   -3.6077   -3.1913 C.ar      12 UNK        -0.0832 
     15 C15        30.8088   -4.7351   -5.4549 C.3       12 UNK         0.0240 
     16 S16        29.8202   -4.1880   -6.8848 S.3       12 UNK        -0.2522 
     17 C17        28.2932   -3.5793   -6.0986 C.3       12 UNK        -0.0967 
     18 CA         27.6684   -2.3835   -6.8608 C.3       5 UNK         0.0660 
     19 N          26.2186   -2.3374   -6.6493 N.am      5 UNK        -0.4015 
     20 C          25.3552   -1.6250   -7.3854 C.2       4 UNK         0.4946 
     21 O          25.6955   -0.8531   -8.2806 O.2       4 UNK        -0.5353 
     22 CA         23.8543   -1.7957   -7.0774 C.3       4 UNK         0.0277 
     23 CB         23.4933   -3.2017   -6.5543 C.3       4 UNK        -0.1981 
     24 N          23.2626   -0.7804   -6.1947 N.am      4 UNK        -0.4209 
     25 C          23.8136   -0.1346   -5.1554 C.2       3 UNK         0.4942 
     26 O          25.0076   -0.1758   -4.8602 O.2       3 UNK        -0.5208 
     27 CA         22.8639    0.6791   -4.2595 C.3       3 UNK         0.0250 
     28 CB         21.4736    0.9446   -4.8742 C.3       3 UNK        -0.1990 
     29 N          22.7087   -0.0725   -3.0172 N.am      3 UNK        -0.4232 
     30 C          23.5147    0.0441   -1.9553 C.2       2 UNK         0.4993 
     31 O          24.3010    0.9759   -1.7797 O.2       2 UNK        -0.5286 
     32 CA         23.4978   -1.1143   -0.9534 C.3       2 UNK         0.0209 
     33 CB         22.1989   -1.9477   -0.9576 C.3       2 UNK        -0.1931 
     34 N          24.6255   -1.9683   -1.3102 N.am      2 UNK        -0.4546 
     35 C          25.5834   -2.3830   -0.4778 C.2       1 UNK         0.5154 
     36 O          25.5558   -2.2106    0.7420 O.2       1 UNK        -0.5181 
     37 C          28.3615   -1.0431   -6.5282 C.2       5 UNK         0.5014 
     38 O          29.3009   -0.6480   -7.2271 O.2       5 UNK        -0.5248 
     39 N          27.8580   -0.3462   -5.4987 N.am      6 UNK        -0.4434 
     40 CA         28.3155    0.9874   -5.1106 C.3       6 UNK         0.0363 
     41 CB         27.9763    1.2508   -3.6360 C.3       6 UNK        -0.1936 
     42 C          27.7226    2.0801   -6.0125 C.2       6 UNK         0.5081 
     43 O          28.4166    3.0535   -6.3015 O.2       6 UNK        -0.5248 
     44 N          26.4753    1.8952   -6.4716 N.am      7 UNK        -0.4718 
     45 CA         25.8040    2.7904   -7.4234 C.3       7 UNK         0.0273 
     46 CB         24.3050    2.4642   -7.5009 C.3       7 UNK        -0.1935 
     47 C          26.4441    2.7494   -8.8207 C.2       7 UNK         0.5018 
     48 O          26.6153    3.8002   -9.4392 O.2       7 UNK        -0.5186 
     49 N          26.8263    1.5456   -9.2713 N.am      8 UNK        -0.4240 
     50 CA         27.6258    1.3184  -10.4789 C.3       8 UNK         0.0235 
     51 CB         27.5968   -0.1789  -10.8275 C.3       8 UNK        -0.2000 
     52 C          29.0825    1.7990  -10.3405 C.2       8 UNK         0.4941 
     53 O          29.7369    2.0137  -11.3613 O.2       8 UNK        -0.5273 
     54 N          29.5536    1.9481   -9.0921 N.am      9 UNK        -0.4262 
     55 CA         30.8947    2.3640   -8.6746 C.3       9 UNK         0.0264 
     56 CB         31.1531    3.8387   -9.0483 C.3       9 UNK        -0.1955 
     57 C          31.9810    1.4073   -9.1922 C.2       9 UNK         0.5031 
     58 O          32.9841    1.8529   -9.7544 O.2       9 UNK        -0.5390 
     59 N          31.7646    0.0990   -8.9855 N.am      10 UNK        -0.4204 
     60 CA         32.6295   -0.9805   -9.4831 C.3       10 UNK         0.0237 
     61 CB         31.9541   -2.3312   -9.2103 C.3       10 UNK        -0.1985 
     62 C          34.0719   -0.9660   -8.9354 C.2       10 UNK         0.4970 
     63 O          34.9503   -1.5779   -9.5442 O.2       10 UNK        -0.4914 
     64 N          34.2939   -0.2560   -7.8227 N.am      11 UNK        -0.4285 
     65 CA         35.6171    0.0522   -7.2603 C.3       11 UNK         0.1007 
     66 C          36.4282    1.0998   -8.0802 C.2       11 UNK         0.5703 
     67 N          35.8381    1.8218   -9.0273 N.am      11 UNK        -0.7361 
     68 O          37.6263    1.2543   -7.8552 O.2       11 UNK        -0.4986 
     69 C69        35.5158    0.4771   -5.7706 C.3       12 UNK        -0.0947 
     70 S70        34.8430   -0.8474   -4.7157 S.3       12 UNK        -0.2240 
     71 C71        33.1080   -0.3261   -4.5524 C.3       12 UNK         0.0194 
     72 H72        25.6019   -6.3838   -3.1715 H         1 UNK         0.0906 
     73 H73        25.9630   -5.7018   -4.7573 H         1 UNK         0.0906 
     74 H74        24.3507   -5.5173   -4.0641 H         1 UNK         0.0906 
     75 H75        26.3856   -5.1602   -1.4938 H         1 UNK         0.3140 
     76 H76        27.3131   -3.5998   -0.2986 H         1 UNK         0.1085 
     77 H77        27.1959   -1.3500   -2.3372 H         1 UNK         0.0836 
     78 H78        28.2560   -2.6673   -2.6493 H         1 UNK         0.0836 
     79 H79        31.1726   -2.2646   -0.2032 H         1 UNK         0.0731 
     80 H80        30.0825   -3.5642   -0.6112 H         1 UNK         0.0731 
     81 H81        31.9683   -0.6742   -2.0840 H         1 UNK         0.1312 
     82 H82        32.3286   -2.5196   -5.9374 H         1 UNK         0.1406 
     83 H83        30.0487   -4.4311   -2.8532 H         1 UNK         0.1631 
     84 H84        30.2708   -5.5317   -4.9386 H         1 UNK         0.0717 
     85 H85        31.7368   -5.1779   -5.8190 H         1 UNK         0.0717 
     86 H86        27.6023   -4.4233   -6.0923 H         1 UNK         0.0934 
     87 H87        28.4615   -3.3299   -5.0501 H         1 UNK         0.0934 
     88 H88        27.8110   -2.5513   -7.9309 H         1 UNK         0.0739 
     89 H89        25.8651   -2.8269   -5.8330 H         1 UNK         0.3093 
     90 H90        23.3539   -1.6809   -8.0404 H         1 UNK         0.0818 
     91 H91        23.9852   -3.9854   -7.1325 H         1 UNK         0.0819 
     92 H92        23.7675   -3.3331   -5.5090 H         1 UNK         0.0819 
     93 H93        22.4205   -3.3795   -6.6294 H         1 UNK         0.0819 
     94 H94        22.2794   -0.6122   -6.3534 H         1 UNK         0.3041 
     95 H95        23.3408    1.6425   -4.0658 H         1 UNK         0.0784 
     96 H96        21.5550    1.4677   -5.8282 H         1 UNK         0.0793 
     97 H97        20.9063    0.0276   -5.0385 H         1 UNK         0.0793 
     98 H98        20.8782    1.5790   -4.2171 H         1 UNK         0.0793 
     99 H99        22.1114   -0.8855   -3.0614 H         1 UNK         0.3024 
    100 H100       23.6346   -0.6803    0.0401 H         1 UNK         0.1171 
    101 H101       22.2130   -2.6846   -0.1543 H         1 UNK         0.0786 
    102 H102       21.3243   -1.3160   -0.7953 H         1 UNK         0.0786 
    103 H103       22.0546   -2.4915   -1.8920 H         1 UNK         0.0786 
    104 H104       24.7725   -2.1387   -2.3013 H         1 UNK         0.2977 
    105 H105       27.0136   -0.6833   -5.0456 H         1 UNK         0.3127 
    106 H106       29.4025    1.0277   -5.2138 H         1 UNK         0.0770 
    107 H107       28.2597    2.2630   -3.3444 H         1 UNK         0.0814 
    108 H108       26.9100    1.1394   -3.4341 H         1 UNK         0.0814 
    109 H109       28.5186    0.5678   -2.9835 H         1 UNK         0.0814 
    110 H110       25.9678    1.0751   -6.1567 H         1 UNK         0.2983 
    111 H111       25.9066    3.8114   -7.0486 H         1 UNK         0.0947 
    112 H112       24.1290    1.4444   -7.8437 H         1 UNK         0.0806 
    113 H113       23.7983    3.1317   -8.1993 H         1 UNK         0.0806 
    114 H114       23.8228    2.5902   -6.5323 H         1 UNK         0.0806 
    115 H115       26.5532    0.7164   -8.7455 H         1 UNK         0.3000 
    116 H116       27.1702    1.8754  -11.3002 H         1 UNK         0.0850 
    117 H117       28.1606   -0.3809  -11.7392 H         1 UNK         0.0810 
    118 H118       26.5772   -0.5280  -10.9924 H         1 UNK         0.0810 
    119 H119       28.0329   -0.7849  -10.0317 H         1 UNK         0.0810 
    120 H120       28.9211    1.7264   -8.3356 H         1 UNK         0.3040 
    121 H121       30.9133    2.2916   -7.5861 H         1 UNK         0.0766 
    122 H122       31.1842    3.9847  -10.1285 H         1 UNK         0.0812 
    123 H123       32.1072    4.1817   -8.6464 H         1 UNK         0.0812 
    124 H124       30.3777    4.4892   -8.6433 H         1 UNK         0.0812 
    125 H125       30.9198   -0.1799   -8.4930 H         1 UNK         0.3205 
    126 H126       32.7055   -0.8559  -10.5653 H         1 UNK         0.0754 
    127 H127       32.5481   -3.1574   -9.6033 H         1 UNK         0.0769 
    128 H128       30.9702   -2.3878   -9.6768 H         1 UNK         0.0769 
    129 H129       31.8263   -2.4991   -8.1429 H         1 UNK         0.0769 
    130 H130       33.5130    0.2222   -7.4039 H         1 UNK         0.2981 
    131 H131       36.2054   -0.8668   -7.2982 H         1 UNK         0.0541 
    132 H132       34.8483    1.7218   -9.2333 H         1 UNK         0.3459 
    133 H133       36.3873    2.4886   -9.5452 H         1 UNK         0.3459 
    134 H134       34.9128    1.3806   -5.6626 H         1 UNK         0.0612 
    135 H135       36.5033    0.7236   -5.3758 H         1 UNK         0.0612 
    136 H136       33.0508    0.5247   -3.8717 H         1 UNK         0.0624 
    137 H137       32.7246    0.0183   -5.5131 H         1 UNK         0.0624 
@<TRIPOS>BOND
     1    1    2 1    
     2    1   72 1    
     3    1   73 1    
     4    1   74 1    
     5    2    3 2    
     6    2    4 am   BACKBONE|DICT|INTERRES
     7    4    5 1    
     8    4   75 1    
     9    5    6 1    
    10    5   35 1    
    11    5   76 1    
    12    6    7 1    
    13    6   77 1    
    14    6   78 1    
    15    7    8 1    
    16    8    9 1    
    17    8   79 1    
    18    8   80 1    
    19    9   10 ar   
    20    9   14 ar   
    21   10   11 ar   
    22   10   81 1    
    23   11   12 ar   
    24   11   71 1    
    25   12   13 ar   
    26   12   82 1    
    27   13   14 ar   
    28   13   15 1    
    29   14   83 1    
    30   15   16 1    
    31   15   84 1    
    32   15   85 1    
    33   16   17 1    
    34   17   18 1    
    35   17   86 1    
    36   17   87 1    
    37   18   19 1    
    38   18   37 1    
    39   18   88 1    
    40   19   20 am   BACKBONE|DICT|INTERRES
    41   19   89 1    
    42   20   21 2    
    43   20   22 1    
    44   22   23 1    
    45   22   24 1    
    46   22   90 1    
    47   23   91 1    
    48   23   92 1    
    49   23   93 1    
    50   24   25 am   BACKBONE|DICT|INTERRES
    51   24   94 1    
    52   25   26 2    
    53   25   27 1    
    54   27   28 1    
    55   27   29 1    
    56   27   95 1    
    57   28   96 1    
    58   28   97 1    
    59   28   98 1    
    60   29   30 am   BACKBONE|DICT|INTERRES
    61   29   99 1    
    62   30   31 2    
    63   30   32 1    
    64   32   33 1    
    65   32   34 1    
    66   32  100 1    
    67   33  101 1    
    68   33  102 1    
    69   33  103 1    
    70   34   35 am   BACKBONE|DICT|INTERRES
    71   34  104 1    
    72   35   36 2    
    73   37   38 2    
    74   37   39 am   BACKBONE|DICT|INTERRES
    75   39   40 1    
    76   39  105 1    
    77   40   41 1    
    78   40   42 1    
    79   40  106 1    
    80   41  107 1    
    81   41  108 1    
    82   41  109 1    
    83   42   43 2    
    84   42   44 am   BACKBONE|DICT|INTERRES
    85   44   45 1    
    86   44  110 1    
    87   45   46 1    
    88   45   47 1    
    89   45  111 1    
    90   46  112 1    
    91   46  113 1    
    92   46  114 1    
    93   47   48 2    
    94   47   49 am   BACKBONE|DICT|INTERRES
    95   49   50 1    
    96   49  115 1    
    97   50   51 1    
    98   50   52 1    
    99   50  116 1    
   100   51  117 1    
   101   51  118 1    
   102   51  119 1    
   103   52   53 2    
   104   52   54 am   BACKBONE|DICT|INTERRES
   105   54   55 1    
   106   54  120 1    
   107   55   56 1    
   108   55   57 1    
   109   55  121 1    
   110   56  122 1    
   111   56  123 1    
   112   56  124 1    
   113   57   58 2    
   114   57   59 am   BACKBONE|DICT|INTERRES
   115   59   60 1    
   116   59  125 1    
   117   60   61 1    
   118   60   62 1    
   119   60  126 1    
   120   61  127 1    
   121   61  128 1    
   122   61  129 1    
   123   62   63 2    
   124   62   64 am   BACKBONE|DICT|INTERRES
   125   64   65 1    
   126   64  130 1    
   127   65   66 1    
   128   65   69 1    
   129   65  131 1    
   130   66   67 am   BACKBONE|DICT|INTERRES
   131   66   68 2    
   132   67  132 1    
   133   67  133 1    
   134   69   70 1    
   135   69  134 1    
   136   69  135 1    
   137   70   71 1    
   138   71  136 1    
   139   71  137 1    
@<TRIPOS>SUBSTRUCTURE
     1 UNK         1 GROUP             0       ****    0 ROOT    
