@<TRIPOS>MOLECULE
3R137
137   139    1
SMALL
USER_CHARGES


@<TRIPOS>ATOM
      1 CA         27.2879   -5.5421   -6.5310 C.3       0 UNK        -0.2020 
      2 C          27.6491   -5.7780   -5.0717 C.2       0 UNK         0.4855 
      3 O          28.0143   -6.8958   -4.7069 O.2       0 UNK        -0.5197 
      4 N          27.5350   -4.7395   -4.2368 N.am      1 UNK        -0.4892 
      5 CA         27.8471   -4.7639   -2.8031 C.3       1 UNK         0.0835 
      6 C6         28.9712   -3.7614   -2.4409 C.3       12 UNK        -0.0855 
      7 S7         30.5901   -4.2305   -3.1378 S.3       12 UNK        -0.2931 
      8 C8         31.7248   -3.3301   -2.0354 C.3       12 UNK         0.0378 
      9 C9         31.6466   -1.8226   -2.2382 C.ar      12 UNK        -0.0802 
     10 C10        32.5215   -1.1838   -3.1226 C.ar      12 UNK        -0.0944 
     11 C11        32.4838    0.2057   -3.2744 C.ar      12 UNK        -0.0787 
     12 C12        31.5510    0.9534   -2.5509 C.ar      12 UNK        -0.0862 
     13 C13        30.6509    0.3242   -1.6858 C.ar      12 UNK        -0.0733 
     14 C14        30.7164   -1.0621   -1.5218 C.ar      12 UNK        -0.0832 
     15 C15        29.6307    1.1379   -0.8992 C.3       12 UNK         0.0240 
     16 S16        28.6549    2.2700   -1.9433 S.3       12 UNK        -0.2522 
     17 C17        27.6645    1.1270   -2.9763 C.3       12 UNK        -0.0967 
     18 CA         27.8702    1.2420   -4.5166 C.3       5 UNK         0.0660 
     19 N          26.8304    0.4989   -5.2382 N.am      5 UNK        -0.4015 
     20 C          26.8115    0.2324   -6.5525 C.2       4 UNK         0.4946 
     21 O          27.7318    0.5182   -7.3241 O.2       4 UNK        -0.5353 
     22 CA         25.5356   -0.4245   -7.1218 C.3       4 UNK         0.0277 
     23 CB         25.8512   -1.4925   -8.1900 C.3       4 UNK        -0.1981 
     24 N          24.5836   -0.9481   -6.1288 N.am      4 UNK        -0.4209 
     25 C          24.7604   -1.9976   -5.3139 C.2       3 UNK         0.4942 
     26 O          25.8283   -2.6074   -5.1944 O.2       3 UNK        -0.5208 
     27 CA         23.5320   -2.4458   -4.5065 C.3       3 UNK         0.0250 
     28 CB         22.3680   -2.8758   -5.4205 C.3       3 UNK        -0.1990 
     29 N          23.9399   -3.5707   -3.6783 N.am      3 UNK        -0.4232 
     30 C          23.4268   -3.9519   -2.5052 C.2       2 UNK         0.4993 
     31 O          22.4380   -3.4342   -1.9847 O.2       2 UNK        -0.5286 
     32 CA         24.1506   -5.1095   -1.7876 C.3       2 UNK         0.0209 
     33 CB         23.3597   -6.4188   -1.9446 C.3       2 UNK        -0.1931 
     34 N          25.5221   -5.3159   -2.2745 N.am      2 UNK        -0.4546 
     35 C          26.5441   -4.4812   -2.0337 C.2       1 UNK         0.5154 
     36 O          26.4545   -3.5009   -1.2920 O.2       1 UNK        -0.5181 
     37 C          27.9317    2.6970   -5.0311 C.2       5 UNK         0.5014 
     38 O          28.9668    3.1229   -5.5439 O.2       5 UNK        -0.5248 
     39 N          26.8018    3.4152   -4.9299 N.am      6 UNK        -0.4434 
     40 CA         26.6608    4.8160   -5.3477 C.3       6 UNK         0.0363 
     41 CB         25.3070    5.3571   -4.8606 C.3       6 UNK        -0.1936 
     42 C          26.8118    5.0323   -6.8646 C.2       6 UNK         0.5081 
     43 O          27.2237    6.1135   -7.2847 O.2       6 UNK        -0.5248 
     44 N          26.4925    3.9988   -7.6550 N.am      7 UNK        -0.4718 
     45 CA         26.6807    3.9697   -9.1073 C.3       7 UNK         0.0273 
     46 CB         25.7657    2.8851   -9.7023 C.3       7 UNK        -0.1935 
     47 C          28.1413    3.7150   -9.5252 C.2       7 UNK         0.5018 
     48 O          28.4632    3.9092  -10.6972 O.2       7 UNK        -0.5186 
     49 N          28.9754    3.2382   -8.5867 N.am      8 UNK        -0.4240 
     50 CA         30.3664    2.7917   -8.7425 C.3       8 UNK         0.0235 
     51 CB         31.2793    3.9363   -9.2266 C.3       8 UNK        -0.2000 
     52 C          30.5384    1.5152   -9.5903 C.2       8 UNK         0.4941 
     53 O          31.6728    1.0895   -9.8131 O.2       8 UNK        -0.5273 
     54 N          29.4330    0.8891  -10.0155 N.am      9 UNK        -0.4262 
     55 CA         29.4316   -0.3630  -10.7725 C.3       9 UNK         0.0264 
     56 CB         28.1038   -0.5167  -11.5321 C.3       9 UNK        -0.1955 
     57 C          29.7550   -1.5867   -9.8973 C.2       9 UNK         0.5031 
     58 O          30.2625   -2.5757  -10.4278 O.2       9 UNK        -0.5390 
     59 N          29.5133   -1.4937   -8.5793 N.am      10 UNK        -0.4204 
     60 CA         30.0246   -2.4535   -7.5954 C.3       10 UNK         0.0237 
     61 CB         29.2902   -2.2746   -6.2595 C.3       10 UNK        -0.1985 
     62 C          31.5422   -2.3117   -7.3789 C.2       10 UNK         0.4970 
     63 O          32.2118   -3.3137   -7.1268 O.2       10 UNK        -0.4914 
     64 N          32.0484   -1.0751   -7.4736 N.am      11 UNK        -0.4285 
     65 CA         33.4675   -0.7315   -7.3192 C.3       11 UNK         0.1007 
     66 C          34.3147   -1.1728   -8.5406 C.2       11 UNK         0.5703 
     67 N          33.8670   -0.8891   -9.7581 N.am      11 UNK        -0.7361 
     68 O          35.3756   -1.7719   -8.3828 O.2       11 UNK        -0.4986 
     69 C69        33.6885    0.7773   -7.0218 C.3       12 UNK        -0.0947 
     70 S70        32.5926    1.4396   -5.7254 S.3       12 UNK        -0.2240 
     71 C71        33.4490    0.9081   -4.2144 C.3       12 UNK         0.0194 
     72 H72        26.8998   -4.5379   -6.6999 H         1 UNK         0.0906 
     73 H73        28.1686   -5.6746   -7.1604 H         1 UNK         0.0906 
     74 H74        26.5280   -6.2556   -6.8505 H         1 UNK         0.0906 
     75 H75        27.1575   -3.8605   -4.5866 H         1 UNK         0.3140 
     76 H76        28.1743   -5.7587   -2.4921 H         1 UNK         0.1085 
     77 H77        29.0803   -3.7013   -1.3564 H         1 UNK         0.0836 
     78 H78        28.7170   -2.7575   -2.7871 H         1 UNK         0.0836 
     79 H79        32.7419   -3.6765   -2.2250 H         1 UNK         0.0731 
     80 H80        31.5101   -3.5855   -0.9965 H         1 UNK         0.0731 
     81 H81        33.2384   -1.7678   -3.6836 H         1 UNK         0.1312 
     82 H82        31.5172    2.0275   -2.6736 H         1 UNK         0.1406 
     83 H83        30.0425   -1.5516   -0.8324 H         1 UNK         0.1631 
     84 H84        30.1605    1.7260   -0.1488 H         1 UNK         0.0717 
     85 H85        28.9458    0.4875   -0.3527 H         1 UNK         0.0717 
     86 H86        27.8594    0.0992   -2.6647 H         1 UNK         0.0934 
     87 H87        26.6192    1.3122   -2.7232 H         1 UNK         0.0934 
     88 H88        28.8325    0.7834   -4.7548 H         1 UNK         0.0739 
     89 H89        26.0371    0.1947   -4.6950 H         1 UNK         0.3093 
     90 H90        25.0086    0.3844   -7.6295 H         1 UNK         0.0818 
     91 H91        24.9424   -1.8418   -8.6797 H         1 UNK         0.0819 
     92 H92        26.4989   -1.0925   -8.9651 H         1 UNK         0.0819 
     93 H93        26.3579   -2.3610   -7.7723 H         1 UNK         0.0819 
     94 H94        23.6749   -0.5041   -6.1315 H         1 UNK         0.3041 
     95 H95        23.2202   -1.6180   -3.8663 H         1 UNK         0.0784 
     96 H96        22.0023   -2.0437   -6.0228 H         1 UNK         0.0793 
     97 H97        22.6680   -3.6700   -6.1055 H         1 UNK         0.0793 
     98 H98        21.5222   -3.2419   -4.8380 H         1 UNK         0.0793 
     99 H99        24.7936   -4.0109   -3.9959 H         1 UNK         0.3024 
    100 H100       24.1942   -4.8554   -0.7259 H         1 UNK         0.1171 
    101 H101       23.8244   -7.2328   -1.3876 H         1 UNK         0.0786 
    102 H102       22.3429   -6.3081   -1.5648 H         1 UNK         0.0786 
    103 H103       23.2857   -6.7241   -2.9892 H         1 UNK         0.0786 
    104 H104       25.6755   -6.0964   -2.8983 H         1 UNK         0.2977 
    105 H105       25.9939    2.9898   -4.4995 H         1 UNK         0.3127 
    106 H106       27.4530    5.3878   -4.8594 H         1 UNK         0.0770 
    107 H107       24.4709    4.8095   -5.2974 H         1 UNK         0.0814 
    108 H108       25.1861    6.4067   -5.1333 H         1 UNK         0.0814 
    109 H109       25.2210    5.2959   -3.7755 H         1 UNK         0.0814 
    110 H110       26.1570    3.1532   -7.2191 H         1 UNK         0.2983 
    111 H111       26.3849    4.9368   -9.5204 H         1 UNK         0.0947 
    112 H112       26.0362    1.8888   -9.3515 H         1 UNK         0.0806 
    113 H113       25.8323    2.8736  -10.7913 H         1 UNK         0.0806 
    114 H114       24.7206    3.0614   -9.4470 H         1 UNK         0.0806 
    115 H115       28.6091    3.1208   -7.6478 H         1 UNK         0.3000 
    116 H116       30.6908    2.5208   -7.7376 H         1 UNK         0.0850 
    117 H117       32.3284    3.6406   -9.1853 H         1 UNK         0.0810 
    118 H118       31.1692    4.8220   -8.6009 H         1 UNK         0.0810 
    119 H119       31.0648    4.2212  -10.2568 H         1 UNK         0.0810 
    120 H120       28.5380    1.2741   -9.7511 H         1 UNK         0.3040 
    121 H121       30.2250   -0.3042  -11.5213 H         1 UNK         0.0766 
    122 H122       28.0288   -1.4988  -12.0014 H         1 UNK         0.0812 
    123 H123       28.0254    0.2251  -12.3272 H         1 UNK         0.0812 
    124 H124       27.2375   -0.3916  -10.8872 H         1 UNK         0.0812 
    125 H125       29.0323   -0.6731   -8.2187 H         1 UNK         0.3205 
    126 H126       29.8275   -3.4640   -7.9600 H         1 UNK         0.0754 
    127 H127       29.6243   -3.0176   -5.5373 H         1 UNK         0.0769 
    128 H128       28.2164   -2.4021   -6.3725 H         1 UNK         0.0769 
    129 H129       29.4731   -1.2927   -5.8223 H         1 UNK         0.0769 
    130 H130       31.4376   -0.3104   -7.7124 H         1 UNK         0.2981 
    131 H131       33.8379   -1.2862   -6.4547 H         1 UNK         0.0541 
    132 H132       34.4011   -1.1700  -10.5644 H         1 UNK         0.3459 
    133 H133       33.0298   -0.3247   -9.8703 H         1 UNK         0.3459 
    134 H134       34.7260    0.9632   -6.7383 H         1 UNK         0.0612 
    135 H135       33.5146    1.3752   -7.9178 H         1 UNK         0.0612 
    136 H136       34.2859    0.2521   -4.4580 H         1 UNK         0.0624 
    137 H137       33.8772    1.7819   -3.7214 H         1 UNK         0.0624 
@<TRIPOS>BOND
     1    1    2 1    
     2    1   72 1    
     3    1   73 1    
     4    1   74 1    
     5    2    3 2    
     6    2    4 am   BACKBONE|DICT|INTERRES
     7    4    5 1    
     8    4   75 1    
     9    5    6 1    
    10    5   35 1    
    11    5   76 1    
    12    6    7 1    
    13    6   77 1    
    14    6   78 1    
    15    7    8 1    
    16    8    9 1    
    17    8   79 1    
    18    8   80 1    
    19    9   10 ar   
    20    9   14 ar   
    21   10   11 ar   
    22   10   81 1    
    23   11   12 ar   
    24   11   71 1    
    25   12   13 ar   
    26   12   82 1    
    27   13   14 ar   
    28   13   15 1    
    29   14   83 1    
    30   15   16 1    
    31   15   84 1    
    32   15   85 1    
    33   16   17 1    
    34   17   18 1    
    35   17   86 1    
    36   17   87 1    
    37   18   19 1    
    38   18   37 1    
    39   18   88 1    
    40   19   20 am   BACKBONE|DICT|INTERRES
    41   19   89 1    
    42   20   21 2    
    43   20   22 1    
    44   22   23 1    
    45   22   24 1    
    46   22   90 1    
    47   23   91 1    
    48   23   92 1    
    49   23   93 1    
    50   24   25 am   BACKBONE|DICT|INTERRES
    51   24   94 1    
    52   25   26 2    
    53   25   27 1    
    54   27   28 1    
    55   27   29 1    
    56   27   95 1    
    57   28   96 1    
    58   28   97 1    
    59   28   98 1    
    60   29   30 am   BACKBONE|DICT|INTERRES
    61   29   99 1    
    62   30   31 2    
    63   30   32 1    
    64   32   33 1    
    65   32   34 1    
    66   32  100 1    
    67   33  101 1    
    68   33  102 1    
    69   33  103 1    
    70   34   35 am   BACKBONE|DICT|INTERRES
    71   34  104 1    
    72   35   36 2    
    73   37   38 2    
    74   37   39 am   BACKBONE|DICT|INTERRES
    75   39   40 1    
    76   39  105 1    
    77   40   41 1    
    78   40   42 1    
    79   40  106 1    
    80   41  107 1    
    81   41  108 1    
    82   41  109 1    
    83   42   43 2    
    84   42   44 am   BACKBONE|DICT|INTERRES
    85   44   45 1    
    86   44  110 1    
    87   45   46 1    
    88   45   47 1    
    89   45  111 1    
    90   46  112 1    
    91   46  113 1    
    92   46  114 1    
    93   47   48 2    
    94   47   49 am   BACKBONE|DICT|INTERRES
    95   49   50 1    
    96   49  115 1    
    97   50   51 1    
    98   50   52 1    
    99   50  116 1    
   100   51  117 1    
   101   51  118 1    
   102   51  119 1    
   103   52   53 2    
   104   52   54 am   BACKBONE|DICT|INTERRES
   105   54   55 1    
   106   54  120 1    
   107   55   56 1    
   108   55   57 1    
   109   55  121 1    
   110   56  122 1    
   111   56  123 1    
   112   56  124 1    
   113   57   58 2    
   114   57   59 am   BACKBONE|DICT|INTERRES
   115   59   60 1    
   116   59  125 1    
   117   60   61 1    
   118   60   62 1    
   119   60  126 1    
   120   61  127 1    
   121   61  128 1    
   122   61  129 1    
   123   62   63 2    
   124   62   64 am   BACKBONE|DICT|INTERRES
   125   64   65 1    
   126   64  130 1    
   127   65   66 1    
   128   65   69 1    
   129   65  131 1    
   130   66   67 am   BACKBONE|DICT|INTERRES
   131   66   68 2    
   132   67  132 1    
   133   67  133 1    
   134   69   70 1    
   135   69  134 1    
   136   69  135 1    
   137   70   71 1    
   138   71  136 1    
   139   71  137 1    
@<TRIPOS>SUBSTRUCTURE
     1 UNK         1 GROUP             0       ****    0 ROOT    
