@<TRIPOS>MOLECULE
3R137
137   139    1
SMALL
USER_CHARGES


@<TRIPOS>ATOM
      1 CA         25.7410   -5.2344   -2.8342 C.3       0 UNK        -0.2020 
      2 C          26.1348   -4.3094   -1.6941 C.2       0 UNK         0.4855 
      3 O          25.2785   -3.9159   -0.9015 O.2       0 UNK        -0.5197 
      4 N          27.4202   -3.9441   -1.6025 N.am      1 UNK        -0.4892 
      5 CA         27.9985   -3.1146   -0.5313 C.3       1 UNK         0.0835 
      6 C6         29.4861   -3.4618   -0.2476 C.3       12 UNK        -0.0855 
      7 S7         29.7746   -5.2648   -0.0894 S.3       12 UNK        -0.2931 
      8 C8         31.3398   -5.5435   -0.9912 C.3       12 UNK         0.0378 
      9 C9         31.4123   -4.8280   -2.3357 C.ar      12 UNK        -0.0802 
     10 C10        32.3931   -3.8521   -2.5450 C.ar      12 UNK        -0.0944 
     11 C11        32.4626   -3.1671   -3.7595 C.ar      12 UNK        -0.0787 
     12 C12        31.5455   -3.4641   -4.7690 C.ar      12 UNK        -0.0862 
     13 C13        30.5454   -4.4183   -4.5680 C.ar      12 UNK        -0.0733 
     14 C14        30.4957   -5.1149   -3.3549 C.ar      12 UNK        -0.0832 
     15 C15        29.5201   -4.6834   -5.6626 C.3       12 UNK         0.0240 
     16 S16        27.9004   -3.9353   -5.2865 S.3       12 UNK        -0.2522 
     17 C17        28.2417   -2.1420   -5.3206 C.3       12 UNK        -0.0967 
     18 CA         27.5583   -1.4255   -6.5117 C.3       5 UNK         0.0660 
     19 N          26.0969   -1.5642   -6.5011 N.am      5 UNK        -0.4015 
     20 C          25.3056   -1.2460   -7.5374 C.2       4 UNK         0.4946 
     21 O          25.7265   -0.8087   -8.6080 O.2       4 UNK        -0.5353 
     22 CA         23.7864   -1.3965   -7.3464 C.3       4 UNK         0.0277 
     23 CB         23.3475   -2.8352   -7.6613 C.3       4 UNK        -0.1981 
     24 N          23.3158   -1.0228   -6.0111 N.am      4 UNK        -0.4209 
     25 C          23.4789    0.1781   -5.4388 C.2       3 UNK         0.4942 
     26 O          24.0406    1.1263   -5.9867 O.2       3 UNK        -0.5208 
     27 CA         22.9860    0.3458   -3.9892 C.3       3 UNK         0.0250 
     28 CB         22.0553   -0.7905   -3.5057 C.3       3 UNK        -0.1990 
     29 N          24.1016    0.5152   -3.0485 N.am      3 UNK        -0.4232 
     30 C          25.1577   -0.2993   -2.9015 C.2       2 UNK         0.4993 
     31 O          25.3654   -1.2851   -3.6149 O.2       2 UNK        -0.5286 
     32 CA         26.1507    0.0186   -1.7726 C.3       2 UNK         0.0209 
     33 CB         25.5925    0.9355   -0.6648 C.3       2 UNK        -0.1931 
     34 N          26.5566   -1.2590   -1.2018 N.am      2 UNK        -0.4546 
     35 C          27.7877   -1.6105   -0.8262 C.2       1 UNK         0.5154 
     36 O          28.7261   -0.8150   -0.7504 O.2       1 UNK        -0.5181 
     37 C          27.9784    0.0559   -6.5587 C.2       5 UNK         0.5014 
     38 O          28.9353    0.3922   -7.2586 O.2       5 UNK        -0.5248 
     39 N          27.2420    0.9132   -5.8367 N.am      6 UNK        -0.4434 
     40 CA         27.4415    2.3617   -5.8213 C.3       6 UNK         0.0363 
     41 CB         26.7186    2.9796   -4.6131 C.3       6 UNK        -0.1936 
     42 C          26.9838    3.0132   -7.1346 C.2       6 UNK         0.5081 
     43 O          27.7074    3.8498   -7.6725 O.2       6 UNK        -0.5248 
     44 N          25.8177    2.5938   -7.6471 N.am      7 UNK        -0.4718 
     45 CA         25.2420    3.0529   -8.9153 C.3       7 UNK         0.0273 
     46 CB         23.8257    2.4791   -9.0760 C.3       7 UNK        -0.1935 
     47 C          26.1104    2.7038  -10.1355 C.2       7 UNK         0.5018 
     48 O          26.2681    3.5420  -11.0237 O.2       7 UNK        -0.5186 
     49 N          26.6829    1.4917  -10.1426 N.am      8 UNK        -0.4240 
     50 CA         27.6436    1.0374  -11.1516 C.3       8 UNK         0.0235 
     51 CB         27.7338   -0.4971  -11.0997 C.3       8 UNK        -0.2000 
     52 C          29.0473    1.6495  -10.9858 C.2       8 UNK         0.4941 
     53 O          29.8463    1.5497  -11.9178 O.2       8 UNK        -0.5273 
     54 N          29.3338    2.2292   -9.8079 N.am      9 UNK        -0.4262 
     55 CA         30.6400    2.7133   -9.3424 C.3       9 UNK         0.0264 
     56 CB         31.0926    3.9498  -10.1467 C.3       9 UNK        -0.1955 
     57 C          31.6924    1.5873   -9.3150 C.2       9 UNK         0.5031 
     58 O          32.8419    1.7954   -9.7101 O.2       9 UNK        -0.5390 
     59 N          31.2681    0.4020   -8.8536 N.am      10 UNK        -0.4204 
     60 CA         32.0293   -0.8496   -8.8883 C.3       10 UNK         0.0237 
     61 CB         31.1033   -2.0079   -8.4829 C.3       10 UNK        -0.1985 
     62 C          33.3059   -0.8372   -8.0307 C.2       10 UNK         0.4970 
     63 O          34.2378   -1.5832   -8.3336 O.2       10 UNK        -0.4914 
     64 N          33.3307    0.0096   -6.9954 N.am      11 UNK        -0.4285 
     65 CA         34.4968    0.2431   -6.1313 C.3       11 UNK         0.1007 
     66 C          35.5155    1.2693   -6.7096 C.2       11 UNK         0.5703 
     67 N          35.2672    1.8948   -7.8560 N.am      11 UNK        -0.7361 
     68 O          36.5634    1.4952   -6.1090 O.2       11 UNK        -0.4986 
     69 C69        34.0859    0.6016   -4.6742 C.3       12 UNK        -0.0947 
     70 S70        32.7586   -0.4404   -3.9731 S.3       12 UNK        -0.2240 
     71 C71        33.5147   -2.0961   -3.9919 C.3       12 UNK         0.0194 
     72 H72        25.2722   -4.6616   -3.6342 H         1 UNK         0.0906 
     73 H73        25.0294   -5.9826   -2.4862 H         1 UNK         0.0906 
     74 H74        26.6040   -5.7586   -3.2438 H         1 UNK         0.0906 
     75 H75        28.0760   -4.2535   -2.3056 H         1 UNK         0.3140 
     76 H76        27.4486   -3.3212    0.3898 H         1 UNK         0.1085 
     77 H77        29.8113   -2.9854    0.6790 H         1 UNK         0.0836 
     78 H78        30.1203   -3.0433   -1.0284 H         1 UNK         0.0836 
     79 H79        32.1641   -5.2338   -0.3468 H         1 UNK         0.0731 
     80 H80        31.4677   -6.6148   -1.1514 H         1 UNK         0.0731 
     81 H81        33.0975   -3.6169   -1.7588 H         1 UNK         0.1312 
     82 H82        31.6023   -2.9277   -5.7046 H         1 UNK         0.1406 
     83 H83        29.7305   -5.8623   -3.1937 H         1 UNK         0.1631 
     84 H84        29.3904   -5.7600   -5.7813 H         1 UNK         0.0717 
     85 H85        29.8716   -4.3113   -6.6262 H         1 UNK         0.0717 
     86 H86        27.9066   -1.7206   -4.3710 H         1 UNK         0.0934 
     87 H87        29.3187   -1.9771   -5.3501 H         1 UNK         0.0934 
     88 H88        27.9231   -1.8873   -7.4320 H         1 UNK         0.0739 
     89 H89        25.6797   -1.8560   -5.6233 H         1 UNK         0.3093 
     90 H90        23.2998   -0.7293   -8.0601 H         1 UNK         0.0818 
     91 H91        23.6679   -3.1297   -8.6618 H         1 UNK         0.0819 
     92 H92        23.7746   -3.5521   -6.9586 H         1 UNK         0.0819 
     93 H93        22.2626   -2.9365   -7.6285 H         1 UNK         0.0819 
     94 H94        22.8729   -1.7480   -5.4660 H         1 UNK         0.3041 
     95 H95        22.4136    1.2745   -3.9705 H         1 UNK         0.0784 
     96 H96        21.2007   -0.9151   -4.1724 H         1 UNK         0.0793 
     97 H97        22.5710   -1.7493   -3.4360 H         1 UNK         0.0793 
     98 H98        21.6537   -0.5671   -2.5172 H         1 UNK         0.0793 
     99 H99        24.0336    1.3153   -2.4354 H         1 UNK         0.3024 
    100 H100       27.0141    0.5011   -2.2358 H         1 UNK         0.1171 
    101 H101       25.3674    1.9323   -1.0458 H         1 UNK         0.0786 
    102 H102       24.6824    0.5289   -0.2215 H         1 UNK         0.0786 
    103 H103       26.3194    1.0638    0.1377 H         1 UNK         0.0786 
    104 H104       25.8730   -2.0065   -1.2824 H         1 UNK         0.2977 
    105 H105       26.4292    0.5577   -5.3537 H         1 UNK         0.3127 
    106 H106       28.5106    2.5568   -5.7094 H         1 UNK         0.0770 
    107 H107       25.6439    2.7987   -4.6421 H         1 UNK         0.0814 
    108 H108       26.8641    4.0603   -4.5867 H         1 UNK         0.0814 
    109 H109       27.1031    2.5814   -3.6746 H         1 UNK         0.0814 
    110 H110       25.2556    1.9406   -7.1037 H         1 UNK         0.2983 
    111 H111       25.1665    4.1413   -8.8666 H         1 UNK         0.0947 
    112 H112       23.8364    1.3900   -9.1232 H         1 UNK         0.0806 
    113 H113       23.3588    2.8416   -9.9927 H         1 UNK         0.0806 
    114 H114       23.1823    2.7714   -8.2458 H         1 UNK         0.0806 
    115 H115       26.4394    0.8258   -9.4130 H         1 UNK         0.3000 
    116 H116       27.2739    1.3264  -12.1378 H         1 UNK         0.0850 
    117 H117       28.4143   -0.8778  -11.8625 H         1 UNK         0.0810 
    118 H118       26.7613   -0.9579  -11.2740 H         1 UNK         0.0810 
    119 H119       28.0996   -0.8449  -10.1324 H         1 UNK         0.0810 
    120 H120       28.5942    2.2728   -9.1185 H         1 UNK         0.3040 
    121 H121       30.4977    3.0252   -8.3065 H         1 UNK         0.0766 
    122 H122       31.3059    3.7021  -11.1869 H         1 UNK         0.0812 
    123 H123       32.0011    4.3792   -9.7228 H         1 UNK         0.0812 
    124 H124       30.3301    4.7287  -10.1359 H         1 UNK         0.0812 
    125 H125       30.3318    0.3556   -8.4525 H         1 UNK         0.3205 
    126 H126       32.3434   -1.0115   -9.9215 H         1 UNK         0.0754 
    127 H127       31.6425   -2.9559   -8.4552 H         1 UNK         0.0769 
    128 H128       30.2831   -2.1231   -9.1919 H         1 UNK         0.0769 
    129 H129       30.6680   -1.8445   -7.4977 H         1 UNK         0.0769 
    130 H130       32.5202    0.5824   -6.8161 H         1 UNK         0.2981 
    131 H131       35.0620   -0.6878   -6.0794 H         1 UNK         0.0541 
    132 H132       35.9455    2.5499   -8.2104 H         1 UNK         0.3459 
    133 H133       34.4189    1.7197   -8.3827 H         1 UNK         0.3459 
    134 H134       33.7376    1.6349   -4.6275 H         1 UNK         0.0612 
    135 H135       34.9508    0.5433   -4.0110 H         1 UNK         0.0612 
    136 H136       33.9894   -2.2880   -4.9535 H         1 UNK         0.0624 
    137 H137       34.3012   -2.1437   -3.2373 H         1 UNK         0.0624 
@<TRIPOS>BOND
     1    1    2 1    
     2    1   72 1    
     3    1   73 1    
     4    1   74 1    
     5    2    3 2    
     6    2    4 am   BACKBONE|DICT|INTERRES
     7    4    5 1    
     8    4   75 1    
     9    5    6 1    
    10    5   35 1    
    11    5   76 1    
    12    6    7 1    
    13    6   77 1    
    14    6   78 1    
    15    7    8 1    
    16    8    9 1    
    17    8   79 1    
    18    8   80 1    
    19    9   10 ar   
    20    9   14 ar   
    21   10   11 ar   
    22   10   81 1    
    23   11   12 ar   
    24   11   71 1    
    25   12   13 ar   
    26   12   82 1    
    27   13   14 ar   
    28   13   15 1    
    29   14   83 1    
    30   15   16 1    
    31   15   84 1    
    32   15   85 1    
    33   16   17 1    
    34   17   18 1    
    35   17   86 1    
    36   17   87 1    
    37   18   19 1    
    38   18   37 1    
    39   18   88 1    
    40   19   20 am   BACKBONE|DICT|INTERRES
    41   19   89 1    
    42   20   21 2    
    43   20   22 1    
    44   22   23 1    
    45   22   24 1    
    46   22   90 1    
    47   23   91 1    
    48   23   92 1    
    49   23   93 1    
    50   24   25 am   BACKBONE|DICT|INTERRES
    51   24   94 1    
    52   25   26 2    
    53   25   27 1    
    54   27   28 1    
    55   27   29 1    
    56   27   95 1    
    57   28   96 1    
    58   28   97 1    
    59   28   98 1    
    60   29   30 am   BACKBONE|DICT|INTERRES
    61   29   99 1    
    62   30   31 2    
    63   30   32 1    
    64   32   33 1    
    65   32   34 1    
    66   32  100 1    
    67   33  101 1    
    68   33  102 1    
    69   33  103 1    
    70   34   35 am   BACKBONE|DICT|INTERRES
    71   34  104 1    
    72   35   36 2    
    73   37   38 2    
    74   37   39 am   BACKBONE|DICT|INTERRES
    75   39   40 1    
    76   39  105 1    
    77   40   41 1    
    78   40   42 1    
    79   40  106 1    
    80   41  107 1    
    81   41  108 1    
    82   41  109 1    
    83   42   43 2    
    84   42   44 am   BACKBONE|DICT|INTERRES
    85   44   45 1    
    86   44  110 1    
    87   45   46 1    
    88   45   47 1    
    89   45  111 1    
    90   46  112 1    
    91   46  113 1    
    92   46  114 1    
    93   47   48 2    
    94   47   49 am   BACKBONE|DICT|INTERRES
    95   49   50 1    
    96   49  115 1    
    97   50   51 1    
    98   50   52 1    
    99   50  116 1    
   100   51  117 1    
   101   51  118 1    
   102   51  119 1    
   103   52   53 2    
   104   52   54 am   BACKBONE|DICT|INTERRES
   105   54   55 1    
   106   54  120 1    
   107   55   56 1    
   108   55   57 1    
   109   55  121 1    
   110   56  122 1    
   111   56  123 1    
   112   56  124 1    
   113   57   58 2    
   114   57   59 am   BACKBONE|DICT|INTERRES
   115   59   60 1    
   116   59  125 1    
   117   60   61 1    
   118   60   62 1    
   119   60  126 1    
   120   61  127 1    
   121   61  128 1    
   122   61  129 1    
   123   62   63 2    
   124   62   64 am   BACKBONE|DICT|INTERRES
   125   64   65 1    
   126   64  130 1    
   127   65   66 1    
   128   65   69 1    
   129   65  131 1    
   130   66   67 am   BACKBONE|DICT|INTERRES
   131   66   68 2    
   132   67  132 1    
   133   67  133 1    
   134   69   70 1    
   135   69  134 1    
   136   69  135 1    
   137   70   71 1    
   138   71  136 1    
   139   71  137 1    
@<TRIPOS>SUBSTRUCTURE
     1 UNK         1 GROUP             0       ****    0 ROOT    
