@<TRIPOS>MOLECULE
3R137
137   139    1
SMALL
USER_CHARGES


@<TRIPOS>ATOM
      1 CA         25.5241   -2.0193   -2.2075 C.3       0 UNK        -0.2020 
      2 C          26.6477   -2.4828   -3.1199 C.2       0 UNK         0.4855 
      3 O          26.8578   -1.8967   -4.1836 O.2       0 UNK        -0.5197 
      4 N          27.3690   -3.5359   -2.7187 N.am      1 UNK        -0.4892 
      5 CA         28.4560   -4.1499   -3.4862 C.3       1 UNK         0.0835 
      6 C6         29.2768   -5.1707   -2.6505 C.3       12 UNK        -0.0855 
      7 S7         29.7756   -4.5837   -0.9973 S.3       12 UNK        -0.2931 
      8 C8         31.3401   -3.7156   -1.3442 C.3       12 UNK         0.0378 
      9 C9         31.1449   -2.2561   -1.7430 C.ar      12 UNK        -0.0802 
     10 C10        31.8814   -1.7163   -2.8016 C.ar      12 UNK        -0.0944 
     11 C11        31.7865   -0.3558   -3.1187 C.ar      12 UNK        -0.0787 
     12 C12        30.9257    0.4601   -2.3779 C.ar      12 UNK        -0.0862 
     13 C13        30.1566   -0.0717   -1.3386 C.ar      12 UNK        -0.0733 
     14 C14        30.2810   -1.4260   -1.0195 C.ar      12 UNK        -0.0832 
     15 C15        29.2050    0.8120   -0.5430 C.3       12 UNK         0.0240 
     16 S16        27.5512    0.8979   -1.3072 S.3       12 UNK        -0.2522 
     17 C17        27.8293    2.1006   -2.6479 C.3       12 UNK        -0.0967 
     18 CA         27.9492    1.4226   -4.0394 C.3       5 UNK         0.0660 
     19 N          26.6706    0.8881   -4.5438 N.am      5 UNK        -0.4015 
     20 C          25.5600    1.5530   -4.8947 C.2       4 UNK         0.4946 
     21 O          25.5014    2.7821   -4.9835 O.2       4 UNK        -0.5353 
     22 CA         24.2903    0.7327   -5.1786 C.3       4 UNK         0.0277 
     23 CB         23.2985    1.4693   -6.1040 C.3       4 UNK        -0.1981 
     24 N          24.5439   -0.6158   -5.7016 N.am      4 UNK        -0.4209 
     25 C          23.7136   -1.6459   -5.4666 C.2       3 UNK         0.4942 
     26 O          22.7687   -1.5857   -4.6781 O.2       3 UNK        -0.5208 
     27 CA         23.9117   -2.9558   -6.2422 C.3       3 UNK         0.0250 
     28 CB         23.0400   -2.9427   -7.5192 C.3       3 UNK        -0.1990 
     29 N          25.3195   -3.2561   -6.5193 N.am      3 UNK        -0.4232 
     30 C          25.7689   -4.3779   -7.1048 C.2       2 UNK         0.4993 
     31 O          25.0438   -5.2539   -7.5773 O.2       2 UNK        -0.5286 
     32 CA         27.2895   -4.5965   -7.1311 C.3       2 UNK         0.0209 
     33 CB         27.9277   -3.9314   -8.3581 C.3       2 UNK        -0.1931 
     34 N          27.9278   -4.1305   -5.8972 N.am      2 UNK        -0.4546 
     35 C          27.8777   -4.8222   -4.7498 C.2       1 UNK         0.5154 
     36 O          27.3621   -5.9387   -4.6554 O.2       1 UNK        -0.5181 
     37 C          28.7255    2.3465   -5.0022 C.2       5 UNK         0.5014 
     38 O          29.9277    2.1493   -5.1722 O.2       5 UNK        -0.5248 
     39 N          28.0552    3.3534   -5.5654 N.am      6 UNK        -0.4434 
     40 CA         28.6097    4.3681   -6.4600 C.3       6 UNK         0.0363 
     41 CB         28.6219    5.7313   -5.7492 C.3       6 UNK        -0.1936 
     42 C          27.8091    4.4419   -7.7652 C.2       6 UNK         0.5081 
     43 O          28.4125    4.5630   -8.8309 O.2       6 UNK        -0.5248 
     44 N          26.4729    4.3408   -7.6760 N.am      7 UNK        -0.4718 
     45 CA         25.5772    4.3005   -8.8401 C.3       7 UNK         0.0273 
     46 CB         24.1452    4.6356   -8.3938 C.3       7 UNK        -0.1935 
     47 C          25.6238    2.9490   -9.5775 C.2       7 UNK         0.5018 
     48 O          25.3422    2.8964  -10.7750 O.2       7 UNK        -0.5186 
     49 N          26.0038    1.8954   -8.8492 N.am      8 UNK        -0.4240 
     50 CA         26.2874    0.5556   -9.3406 C.3       8 UNK         0.0235 
     51 CB         24.9976   -0.2776   -9.4101 C.3       8 UNK        -0.2000 
     52 C          27.3240   -0.0158   -8.3737 C.2       8 UNK         0.4941 
     53 O          26.9513   -0.5810   -7.3416 O.2       8 UNK        -0.5273 
     54 N          28.5980    0.2460   -8.6817 N.am      9 UNK        -0.4262 
     55 CA         29.7474   -0.0289   -7.8260 C.3       9 UNK         0.0264 
     56 CB         30.7629    1.1135   -8.0123 C.3       9 UNK        -0.1955 
     57 C          30.4147   -1.3561   -8.2004 C.2       9 UNK         0.5031 
     58 O          30.6045   -1.6267   -9.3878 O.2       9 UNK        -0.5390 
     59 N          30.8406   -2.1136   -7.1804 N.am      10 UNK        -0.4204 
     60 CA         31.7510   -3.2583   -7.3319 C.3       10 UNK         0.0237 
     61 CB         31.5430   -4.2372   -6.1629 C.3       10 UNK        -0.1985 
     62 C          33.2304   -2.8293   -7.4129 C.2       10 UNK         0.4970 
     63 O          34.0744   -3.6353   -7.8043 O.2       10 UNK        -0.4914 
     64 N          33.5139   -1.5805   -7.0242 N.am      11 UNK        -0.4285 
     65 CA         34.8471   -0.9674   -6.9510 C.3       11 UNK         0.1007 
     66 C          35.4497   -0.5593   -8.3275 C.2       11 UNK         0.5703 
     67 N          34.7110   -0.6277   -9.4293 N.am      11 UNK        -0.7361 
     68 O          36.6163   -0.1799   -8.3970 O.2       11 UNK        -0.4986 
     69 C69        34.8489    0.2291   -5.9589 C.3       12 UNK        -0.0947 
     70 S70        34.3370   -0.2493   -4.2720 S.3       12 UNK        -0.2240 
     71 C71        32.5777    0.2353   -4.2806 C.3       12 UNK         0.0194 
     72 H72        24.5978   -2.5343   -2.4599 H         1 UNK         0.0906 
     73 H73        25.7564   -2.2120   -1.1605 H         1 UNK         0.0906 
     74 H74        25.3571   -0.9489   -2.3232 H         1 UNK         0.0906 
     75 H75        27.1607   -3.9816   -1.8366 H         1 UNK         0.3140 
     76 H76        29.1353   -3.3518   -3.7940 H         1 UNK         0.1085 
     77 H77        28.6985   -6.0808   -2.4783 H         1 UNK         0.0836 
     78 H78        30.1631   -5.4867   -3.2038 H         1 UNK         0.0836 
     79 H79        31.9514   -3.7384   -0.4411 H         1 UNK         0.0731 
     80 H80        31.9015   -4.2613   -2.1042 H         1 UNK         0.0731 
     81 H81        32.5530   -2.3498   -3.3644 H         1 UNK         0.1312 
     82 H82        30.8420    1.5097   -2.6232 H         1 UNK         0.1406 
     83 H83        29.7067   -1.8344   -0.1990 H         1 UNK         0.1631 
     84 H84        29.6202    1.8140   -0.4262 H         1 UNK         0.0717 
     85 H85        29.0958    0.4172    0.4683 H         1 UNK         0.0717 
     86 H86        27.0106    2.8221   -2.6404 H         1 UNK         0.0934 
     87 H87        28.7221    2.6807   -2.4064 H         1 UNK         0.0934 
     88 H88        28.5784    0.5385   -3.9258 H         1 UNK         0.0739 
     89 H89        26.6287   -0.1305   -4.5350 H         1 UNK         0.3093 
     90 H90        23.8166    0.6436   -4.1986 H         1 UNK         0.0818 
     91 H91        22.3612    0.9214   -6.1997 H         1 UNK         0.0819 
     92 H92        23.0463    2.4563   -5.7143 H         1 UNK         0.0819 
     93 H93        23.7082    1.6024   -7.1043 H         1 UNK         0.0819 
     94 H94        25.3329   -0.7155   -6.3382 H         1 UNK         0.3041 
     95 H95        23.5424   -3.7521   -5.5926 H         1 UNK         0.0784 
     96 H96        22.0598   -2.5024   -7.3293 H         1 UNK         0.0793 
     97 H97        23.5017   -2.3753   -8.3235 H         1 UNK         0.0793 
     98 H98        22.8560   -3.9501   -7.8909 H         1 UNK         0.0793 
     99 H99        25.9979   -2.6260   -6.1047 H         1 UNK         0.3024 
    100 H100       27.4580   -5.6725   -7.2229 H         1 UNK         0.1171 
    101 H101       27.4613   -4.2848   -9.2786 H         1 UNK         0.0786 
    102 H102       28.9901   -4.1633   -8.4269 H         1 UNK         0.0786 
    103 H103       27.8176   -2.8502   -8.3359 H         1 UNK         0.0786 
    104 H104       28.2758   -3.1827   -5.8844 H         1 UNK         0.2977 
    105 H105       27.0558    3.3922   -5.3617 H         1 UNK         0.3127 
    106 H106       29.6385    4.1152   -6.7241 H         1 UNK         0.0770 
    107 H107       27.6206    6.0420   -5.4486 H         1 UNK         0.0814 
    108 H108       29.0247    6.5078   -6.4010 H         1 UNK         0.0814 
    109 H109       29.2455    5.7031   -4.8555 H         1 UNK         0.0814 
    110 H110       26.0379    4.2598   -6.7665 H         1 UNK         0.2983 
    111 H111       25.8972    5.0660   -9.5508 H         1 UNK         0.0947 
    112 H112       23.4531    4.5947   -9.2362 H         1 UNK         0.0806 
    113 H113       24.0870    5.6416   -7.9780 H         1 UNK         0.0806 
    114 H114       23.7810    3.9412   -7.6377 H         1 UNK         0.0806 
    115 H115       26.2403    2.0572   -7.8807 H         1 UNK         0.3000 
    116 H116       26.7263    0.6082  -10.3396 H         1 UNK         0.0850 
    117 H117       25.2190   -1.3147   -9.6648 H         1 UNK         0.0810 
    118 H118       24.4636   -0.2727   -8.4617 H         1 UNK         0.0810 
    119 H119       24.3203    0.1085  -10.1718 H         1 UNK         0.0810 
    120 H120       28.8061    0.6806   -9.5694 H         1 UNK         0.3040 
    121 H121       29.4285   -0.0563   -6.7818 H         1 UNK         0.0766 
    122 H122       30.3002    2.0860   -7.8485 H         1 UNK         0.0812 
    123 H123       31.1906    1.1212   -9.0161 H         1 UNK         0.0812 
    124 H124       31.5890    1.0308   -7.3064 H         1 UNK         0.0812 
    125 H125       30.6287   -1.8260   -6.2361 H         1 UNK         0.3205 
    126 H126       31.5195   -3.7857   -8.2599 H         1 UNK         0.0754 
    127 H127       32.2704   -5.0497   -6.1964 H         1 UNK         0.0769 
    128 H128       30.5594   -4.7002   -6.2088 H         1 UNK         0.0769 
    129 H129       31.6471   -3.7488   -5.1939 H         1 UNK         0.0769 
    130 H130       32.7539   -0.9883   -6.7383 H         1 UNK         0.2981 
    131 H131       35.5253   -1.7234   -6.5506 H         1 UNK         0.0541 
    132 H132       33.7585   -0.9523   -9.3911 H         1 UNK         0.3459 
    133 H133       35.1196   -0.3639  -10.3120 H         1 UNK         0.3459 
    134 H134       34.2076    1.0350   -6.3206 H         1 UNK         0.0612 
    135 H135       35.8513    0.6539   -5.8794 H         1 UNK         0.0612 
    136 H136       32.5220    1.3251   -4.2726 H         1 UNK         0.0624 
    137 H137       32.1050   -0.0887   -5.2055 H         1 UNK         0.0624 
@<TRIPOS>BOND
     1    1    2 1    
     2    1   72 1    
     3    1   73 1    
     4    1   74 1    
     5    2    3 2    
     6    2    4 am   BACKBONE|DICT|INTERRES
     7    4    5 1    
     8    4   75 1    
     9    5    6 1    
    10    5   35 1    
    11    5   76 1    
    12    6    7 1    
    13    6   77 1    
    14    6   78 1    
    15    7    8 1    
    16    8    9 1    
    17    8   79 1    
    18    8   80 1    
    19    9   10 ar   
    20    9   14 ar   
    21   10   11 ar   
    22   10   81 1    
    23   11   12 ar   
    24   11   71 1    
    25   12   13 ar   
    26   12   82 1    
    27   13   14 ar   
    28   13   15 1    
    29   14   83 1    
    30   15   16 1    
    31   15   84 1    
    32   15   85 1    
    33   16   17 1    
    34   17   18 1    
    35   17   86 1    
    36   17   87 1    
    37   18   19 1    
    38   18   37 1    
    39   18   88 1    
    40   19   20 am   BACKBONE|DICT|INTERRES
    41   19   89 1    
    42   20   21 2    
    43   20   22 1    
    44   22   23 1    
    45   22   24 1    
    46   22   90 1    
    47   23   91 1    
    48   23   92 1    
    49   23   93 1    
    50   24   25 am   BACKBONE|DICT|INTERRES
    51   24   94 1    
    52   25   26 2    
    53   25   27 1    
    54   27   28 1    
    55   27   29 1    
    56   27   95 1    
    57   28   96 1    
    58   28   97 1    
    59   28   98 1    
    60   29   30 am   BACKBONE|DICT|INTERRES
    61   29   99 1    
    62   30   31 2    
    63   30   32 1    
    64   32   33 1    
    65   32   34 1    
    66   32  100 1    
    67   33  101 1    
    68   33  102 1    
    69   33  103 1    
    70   34   35 am   BACKBONE|DICT|INTERRES
    71   34  104 1    
    72   35   36 2    
    73   37   38 2    
    74   37   39 am   BACKBONE|DICT|INTERRES
    75   39   40 1    
    76   39  105 1    
    77   40   41 1    
    78   40   42 1    
    79   40  106 1    
    80   41  107 1    
    81   41  108 1    
    82   41  109 1    
    83   42   43 2    
    84   42   44 am   BACKBONE|DICT|INTERRES
    85   44   45 1    
    86   44  110 1    
    87   45   46 1    
    88   45   47 1    
    89   45  111 1    
    90   46  112 1    
    91   46  113 1    
    92   46  114 1    
    93   47   48 2    
    94   47   49 am   BACKBONE|DICT|INTERRES
    95   49   50 1    
    96   49  115 1    
    97   50   51 1    
    98   50   52 1    
    99   50  116 1    
   100   51  117 1    
   101   51  118 1    
   102   51  119 1    
   103   52   53 2    
   104   52   54 am   BACKBONE|DICT|INTERRES
   105   54   55 1    
   106   54  120 1    
   107   55   56 1    
   108   55   57 1    
   109   55  121 1    
   110   56  122 1    
   111   56  123 1    
   112   56  124 1    
   113   57   58 2    
   114   57   59 am   BACKBONE|DICT|INTERRES
   115   59   60 1    
   116   59  125 1    
   117   60   61 1    
   118   60   62 1    
   119   60  126 1    
   120   61  127 1    
   121   61  128 1    
   122   61  129 1    
   123   62   63 2    
   124   62   64 am   BACKBONE|DICT|INTERRES
   125   64   65 1    
   126   64  130 1    
   127   65   66 1    
   128   65   69 1    
   129   65  131 1    
   130   66   67 am   BACKBONE|DICT|INTERRES
   131   66   68 2    
   132   67  132 1    
   133   67  133 1    
   134   69   70 1    
   135   69  134 1    
   136   69  135 1    
   137   70   71 1    
   138   71  136 1    
   139   71  137 1    
@<TRIPOS>SUBSTRUCTURE
     1 UNK         1 GROUP             0       ****    0 ROOT    
