@<TRIPOS>MOLECULE
3R137
137   139    1
SMALL
USER_CHARGES


@<TRIPOS>ATOM
      1 CA         30.3230   -6.2986   -7.5774 C.3       0 UNK        -0.2020 
      2 C          29.5922   -6.3691   -6.2447 C.2       0 UNK         0.4855 
      3 O          28.7335   -7.2323   -6.0633 O.2       0 UNK        -0.5197 
      4 N          29.9380   -5.4778   -5.3077 N.am      1 UNK        -0.4892 
      5 CA         29.3558   -5.3860   -3.9628 C.3       1 UNK         0.0835 
      6 C6         30.2119   -4.4993   -3.0209 C.3       12 UNK        -0.0855 
      7 S7         30.6605   -2.8858   -3.7512 S.3       12 UNK        -0.2931 
      8 C8         30.1194   -1.7152   -2.4726 C.3       12 UNK         0.0378 
      9 C9         30.4263   -0.2978   -2.9238 C.ar      12 UNK        -0.0802 
     10 C10        31.7017    0.2407   -2.7272 C.ar      12 UNK        -0.0944 
     11 C11        32.0248    1.5006   -3.2398 C.ar      12 UNK        -0.0787 
     12 C12        31.0448    2.2458   -3.9025 C.ar      12 UNK        -0.0862 
     13 C13        29.7595    1.7261   -4.0826 C.ar      12 UNK        -0.0733 
     14 C14        29.4559    0.4514   -3.5949 C.ar      12 UNK        -0.0832 
     15 C15        28.7150    2.5133   -4.8546 C.3       12 UNK         0.0240 
     16 S16        27.4693    3.2496   -3.7527 S.3       12 UNK        -0.2522 
     17 C17        26.3394    3.9610   -4.9952 C.3       12 UNK        -0.0967 
     18 CA         25.3142    2.9169   -5.5075 C.3       5 UNK         0.0660 
     19 N          24.4441    2.4210   -4.4366 N.am      5 UNK        -0.4015 
     20 C          23.8527    1.2222   -4.4317 C.2       4 UNK         0.4946 
     21 O          23.8840    0.4364   -5.3847 O.2       4 UNK        -0.5353 
     22 CA         23.0900    0.8304   -3.1657 C.3       4 UNK         0.0277 
     23 CB         21.5954    1.1709   -3.2882 C.3       4 UNK        -0.1981 
     24 N          23.2613   -0.6071   -3.0081 N.am      4 UNK        -0.4209 
     25 C          23.4436   -1.2560   -1.8548 C.2       3 UNK         0.4942 
     26 O          23.3514   -0.7267   -0.7463 O.2       3 UNK        -0.5208 
     27 CA         23.7968   -2.7514   -1.9495 C.3       3 UNK         0.0250 
     28 CB         22.5379   -3.6128   -1.7552 C.3       3 UNK        -0.1990 
     29 N          24.4522   -3.1310   -3.2080 N.am      3 UNK        -0.4232 
     30 C          25.6981   -2.7786   -3.5571 C.2       2 UNK         0.4993 
     31 O          26.4240   -2.0491   -2.8782 O.2       2 UNK        -0.5286 
     32 CA         26.2199   -3.3310   -4.8970 C.3       2 UNK         0.0209 
     33 CB         26.2532   -2.2241   -5.9646 C.3       2 UNK        -0.1931 
     34 N          27.5570   -3.9178   -4.7706 N.am      2 UNK        -0.4546 
     35 C          27.8751   -4.9531   -3.9790 C.2       1 UNK         0.5154 
     36 O          27.0556   -5.5764   -3.3011 O.2       1 UNK        -0.5181 
     37 C          24.5151    3.4087   -6.7331 C.2       5 UNK         0.5014 
     38 O          24.6451    4.5657   -7.1375 O.2       5 UNK        -0.5248 
     39 N          23.7268    2.5030   -7.3280 N.am      6 UNK        -0.4434 
     40 CA         23.1393    2.6542   -8.6639 C.3       6 UNK         0.0363 
     41 CB         22.0496    1.5891   -8.8635 C.3       6 UNK        -0.1936 
     42 C          24.2111    2.5519   -9.7676 C.2       6 UNK         0.5081 
     43 O          24.0650    3.1643  -10.8255 O.2       6 UNK        -0.5248 
     44 N          25.2818    1.8074   -9.4745 N.am      7 UNK        -0.4718 
     45 CA         26.5443    1.7544  -10.1976 C.3       7 UNK         0.0273 
     46 CB         26.5596    0.5237  -11.1198 C.3       7 UNK        -0.1935 
     47 C          27.6525    1.6700   -9.1389 C.2       7 UNK         0.5018 
     48 O          27.3795    1.2524   -8.0098 O.2       7 UNK        -0.5186 
     49 N          28.8794    2.0553   -9.5124 N.am      8 UNK        -0.4240 
     50 CA         30.0468    2.0467   -8.6213 C.3       8 UNK         0.0235 
     51 CB         31.1758    2.8789   -9.2509 C.3       8 UNK        -0.2000 
     52 C          30.5552    0.6370   -8.2699 C.2       8 UNK         0.4941 
     53 O          31.2193    0.4782   -7.2457 O.2       8 UNK        -0.5273 
     54 N          30.2784   -0.3477   -9.1423 N.am      9 UNK        -0.4262 
     55 CA         30.6095   -1.7769   -9.0100 C.3       9 UNK         0.0264 
     56 CB         29.7619   -2.4011   -7.8805 C.3       9 UNK        -0.1955 
     57 C          32.1161   -2.0695   -8.8288 C.2       9 UNK         0.5031 
     58 O          32.4712   -3.1091   -8.2689 O.2       9 UNK        -0.5390 
     59 N          32.9700   -1.1194   -9.2474 N.am      10 UNK        -0.4204 
     60 CA         34.4196   -1.0379   -9.0087 C.3       10 UNK         0.0237 
     61 CB         35.1578   -2.1096   -9.8388 C.3       10 UNK        -0.1985 
     62 C          34.8137   -1.0825   -7.5131 C.2       10 UNK         0.4970 
     63 O          35.9556   -1.4254   -7.2010 O.2       10 UNK        -0.4914 
     64 N          33.8610   -0.7731   -6.6207 N.am      11 UNK        -0.4285 
     65 CA         33.9090   -1.0270   -5.1732 C.3       11 UNK         0.1007 
     66 C          34.1162   -2.5276   -4.7884 C.2       11 UNK         0.5703 
     67 N          33.7660   -3.4853   -5.6421 N.am      11 UNK        -0.7361 
     68 O          34.5847   -2.8375   -3.6950 O.2       11 UNK        -0.4986 
     69 C69        34.8536   -0.0576   -4.4035 C.3       12 UNK        -0.0947 
     70 S70        34.4205    1.7039   -4.6174 S.3       12 UNK        -0.2240 
     71 C71        33.4405    2.0448   -3.1164 C.3       12 UNK         0.0194 
     72 H72        29.6332   -6.0105   -8.3701 H         1 UNK         0.0906 
     73 H73        31.1416   -5.5786   -7.5571 H         1 UNK         0.0906 
     74 H74        30.7411   -7.2732   -7.8279 H         1 UNK         0.0906 
     75 H75        30.6484   -4.7863   -5.5076 H         1 UNK         0.3140 
     76 H76        29.3670   -6.3960   -3.5460 H         1 UNK         0.1085 
     77 H77        31.1435   -5.0181   -2.7894 H         1 UNK         0.0836 
     78 H78        29.7134   -4.3558   -2.0600 H         1 UNK         0.0836 
     79 H79        30.6309   -1.9319   -1.5335 H         1 UNK         0.0731 
     80 H80        29.0514   -1.8383   -2.2875 H         1 UNK         0.0731 
     81 H81        32.4594   -0.3473   -2.2274 H         1 UNK         0.1312 
     82 H82        31.2940    3.2182   -4.3046 H         1 UNK         0.1406 
     83 H83        28.4711    0.0330   -3.7583 H         1 UNK         0.1631 
     84 H84        28.2287    1.8473   -5.5674 H         1 UNK         0.0717 
     85 H85        29.1863    3.3038   -5.4403 H         1 UNK         0.0717 
     86 H86        25.8278    4.8188   -4.5548 H         1 UNK         0.0934 
     87 H87        26.9381    4.3575   -5.8180 H         1 UNK         0.0934 
     88 H88        25.8937    2.0667   -5.8736 H         1 UNK         0.0739 
     89 H89        24.3484    3.0214   -3.6305 H         1 UNK         0.3093 
     90 H90        23.5224    1.3559   -2.3112 H         1 UNK         0.0818 
     91 H91        21.4471    2.2442   -3.4131 H         1 UNK         0.0819 
     92 H92        21.1377    0.6748   -4.1452 H         1 UNK         0.0819 
     93 H93        21.0474    0.8689   -2.3955 H         1 UNK         0.0819 
     94 H94        23.4095   -1.1006   -3.8796 H         1 UNK         0.3041 
     95 H95        24.4892   -2.9717   -1.1339 H         1 UNK         0.0784 
     96 H96        22.0441   -3.3746   -0.8119 H         1 UNK         0.0793 
     97 H97        21.8109   -3.4525   -2.5525 H         1 UNK         0.0793 
     98 H98        22.7828   -4.6749   -1.7302 H         1 UNK         0.0793 
     99 H99        23.9244   -3.7345   -3.8227 H         1 UNK         0.3024 
    100 H100       25.5487   -4.1217   -5.2391 H         1 UNK         0.1171 
    101 H101       26.9412   -1.4207   -5.6960 H         1 UNK         0.0786 
    102 H102       26.5552   -2.6171   -6.9351 H         1 UNK         0.0786 
    103 H103       25.2672   -1.7766   -6.0946 H         1 UNK         0.0786 
    104 H104       28.3098   -3.4510   -5.2546 H         1 UNK         0.2977 
    105 H105       23.6566    1.5893   -6.8843 H         1 UNK         0.3127 
    106 H106       22.6777    3.6416   -8.7329 H         1 UNK         0.0770 
    107 H107       22.4547    0.5785   -8.7969 H         1 UNK         0.0814 
    108 H108       21.5822    1.6898   -9.8439 H         1 UNK         0.0814 
    109 H109       21.2608    1.6845   -8.1172 H         1 UNK         0.0814 
    110 H110       25.3363    1.3820   -8.5569 H         1 UNK         0.2983 
    111 H111       26.6791    2.6671  -10.7828 H         1 UNK         0.0947 
    112 H112       27.4891    0.4683  -11.6873 H         1 UNK         0.0806 
    113 H113       25.7428    0.5614  -11.8408 H         1 UNK         0.0806 
    114 H114       26.4633   -0.4047  -10.5548 H         1 UNK         0.0806 
    115 H115       29.0251    2.3917  -10.4541 H         1 UNK         0.3000 
    116 H116       29.7589    2.5243   -7.6831 H         1 UNK         0.0850 
    117 H117       32.0497    2.9078   -8.5979 H         1 UNK         0.0810 
    118 H118       30.8641    3.9108   -9.4141 H         1 UNK         0.0810 
    119 H119       31.4977    2.4691  -10.2090 H         1 UNK         0.0810 
    120 H120       29.7536   -0.0981   -9.9687 H         1 UNK         0.3040 
    121 H121       30.3187   -2.2511   -9.9485 H         1 UNK         0.0766 
    122 H122       30.0650   -2.0342   -6.8986 H         1 UNK         0.0812 
    123 H123       28.7043   -2.1740   -8.0105 H         1 UNK         0.0812 
    124 H124       29.8592   -3.4853   -7.8689 H         1 UNK         0.0812 
    125 H125       32.5598   -0.3056   -9.6829 H         1 UNK         0.3205 
    126 H126       34.7351   -0.0588   -9.3721 H         1 UNK         0.0754 
    127 H127       36.2388   -1.9755   -9.7841 H         1 UNK         0.0769 
    128 H128       34.8804   -2.0568  -10.8915 H         1 UNK         0.0769 
    129 H129       34.9364   -3.1168   -9.4837 H         1 UNK         0.0769 
    130 H130       32.9581   -0.4538   -6.9595 H         1 UNK         0.2981 
    131 H131       32.8937   -0.8195   -4.8426 H         1 UNK         0.0541 
    132 H132       33.9049   -4.4467   -5.3790 H         1 UNK         0.3459 
    133 H133       33.3609   -3.2611   -6.5464 H         1 UNK         0.3459 
    134 H134       35.8844   -0.1972   -4.7315 H         1 UNK         0.0612 
    135 H135       34.8490   -0.2800   -3.3356 H         1 UNK         0.0612 
    136 H136       33.4028    3.1242   -2.9627 H         1 UNK         0.0624 
    137 H137       33.9415    1.6315   -2.2397 H         1 UNK         0.0624 
@<TRIPOS>BOND
     1    1    2 1    
     2    1   72 1    
     3    1   73 1    
     4    1   74 1    
     5    2    3 2    
     6    2    4 am   BACKBONE|DICT|INTERRES
     7    4    5 1    
     8    4   75 1    
     9    5    6 1    
    10    5   35 1    
    11    5   76 1    
    12    6    7 1    
    13    6   77 1    
    14    6   78 1    
    15    7    8 1    
    16    8    9 1    
    17    8   79 1    
    18    8   80 1    
    19    9   10 ar   
    20    9   14 ar   
    21   10   11 ar   
    22   10   81 1    
    23   11   12 ar   
    24   11   71 1    
    25   12   13 ar   
    26   12   82 1    
    27   13   14 ar   
    28   13   15 1    
    29   14   83 1    
    30   15   16 1    
    31   15   84 1    
    32   15   85 1    
    33   16   17 1    
    34   17   18 1    
    35   17   86 1    
    36   17   87 1    
    37   18   19 1    
    38   18   37 1    
    39   18   88 1    
    40   19   20 am   BACKBONE|DICT|INTERRES
    41   19   89 1    
    42   20   21 2    
    43   20   22 1    
    44   22   23 1    
    45   22   24 1    
    46   22   90 1    
    47   23   91 1    
    48   23   92 1    
    49   23   93 1    
    50   24   25 am   BACKBONE|DICT|INTERRES
    51   24   94 1    
    52   25   26 2    
    53   25   27 1    
    54   27   28 1    
    55   27   29 1    
    56   27   95 1    
    57   28   96 1    
    58   28   97 1    
    59   28   98 1    
    60   29   30 am   BACKBONE|DICT|INTERRES
    61   29   99 1    
    62   30   31 2    
    63   30   32 1    
    64   32   33 1    
    65   32   34 1    
    66   32  100 1    
    67   33  101 1    
    68   33  102 1    
    69   33  103 1    
    70   34   35 am   BACKBONE|DICT|INTERRES
    71   34  104 1    
    72   35   36 2    
    73   37   38 2    
    74   37   39 am   BACKBONE|DICT|INTERRES
    75   39   40 1    
    76   39  105 1    
    77   40   41 1    
    78   40   42 1    
    79   40  106 1    
    80   41  107 1    
    81   41  108 1    
    82   41  109 1    
    83   42   43 2    
    84   42   44 am   BACKBONE|DICT|INTERRES
    85   44   45 1    
    86   44  110 1    
    87   45   46 1    
    88   45   47 1    
    89   45  111 1    
    90   46  112 1    
    91   46  113 1    
    92   46  114 1    
    93   47   48 2    
    94   47   49 am   BACKBONE|DICT|INTERRES
    95   49   50 1    
    96   49  115 1    
    97   50   51 1    
    98   50   52 1    
    99   50  116 1    
   100   51  117 1    
   101   51  118 1    
   102   51  119 1    
   103   52   53 2    
   104   52   54 am   BACKBONE|DICT|INTERRES
   105   54   55 1    
   106   54  120 1    
   107   55   56 1    
   108   55   57 1    
   109   55  121 1    
   110   56  122 1    
   111   56  123 1    
   112   56  124 1    
   113   57   58 2    
   114   57   59 am   BACKBONE|DICT|INTERRES
   115   59   60 1    
   116   59  125 1    
   117   60   61 1    
   118   60   62 1    
   119   60  126 1    
   120   61  127 1    
   121   61  128 1    
   122   61  129 1    
   123   62   63 2    
   124   62   64 am   BACKBONE|DICT|INTERRES
   125   64   65 1    
   126   64  130 1    
   127   65   66 1    
   128   65   69 1    
   129   65  131 1    
   130   66   67 am   BACKBONE|DICT|INTERRES
   131   66   68 2    
   132   67  132 1    
   133   67  133 1    
   134   69   70 1    
   135   69  134 1    
   136   69  135 1    
   137   70   71 1    
   138   71  136 1    
   139   71  137 1    
@<TRIPOS>SUBSTRUCTURE
     1 UNK         1 GROUP             0       ****    0 ROOT    
