@<TRIPOS>MOLECULE
3R137
137   139    1
SMALL
USER_CHARGES


@<TRIPOS>ATOM
      1 CA         27.1738   -8.3092   -2.2356 C.3       0 UNK        -0.2020 
      2 C          26.5581   -7.0415   -1.6634 C.2       0 UNK         0.4855 
      3 O          25.7359   -7.1168   -0.7505 O.2       0 UNK        -0.5197 
      4 N          26.9430   -5.8754   -2.1976 N.am      1 UNK        -0.4892 
      5 CA         26.4600   -4.5523   -1.7777 C.3       1 UNK         0.0835 
      6 C6         27.5207   -3.4481   -2.0217 C.3       12 UNK        -0.0855 
      7 S7         28.1547   -3.3718   -3.7371 S.3       12 UNK        -0.2931 
      8 C8         29.9534   -3.5677   -3.4880 C.3       12 UNK         0.0378 
      9 C9         30.6532   -2.2455   -3.1862 C.ar      12 UNK        -0.0802 
     10 C10        31.4652   -1.6413   -4.1528 C.ar      12 UNK        -0.0944 
     11 C11        32.1240   -0.4380   -3.8799 C.ar      12 UNK        -0.0787 
     12 C12        31.9604    0.1706   -2.6325 C.ar      12 UNK        -0.0862 
     13 C13        31.1528   -0.4214   -1.6580 C.ar      12 UNK        -0.0733 
     14 C14        30.5155   -1.6340   -1.9356 C.ar      12 UNK        -0.0832 
     15 C15        30.9588    0.2474   -0.3052 C.3       12 UNK         0.0240 
     16 S16        29.2736    0.9133   -0.1205 S.3       12 UNK        -0.2522 
     17 C17        29.2793    2.2988   -1.3107 C.3       12 UNK        -0.0967 
     18 CA         28.6930    1.9179   -2.6972 C.3       5 UNK         0.0660 
     19 N          27.3401    1.3596   -2.5912 N.am      5 UNK        -0.4015 
     20 C          26.7710    0.5562   -3.4983 C.2       4 UNK         0.4946 
     21 O          27.3478    0.1901   -4.5232 O.2       4 UNK        -0.5353 
     22 CA         25.3321    0.0962   -3.1933 C.3       4 UNK         0.0277 
     23 CB         24.3525    1.2868   -3.1020 C.3       4 UNK        -0.1981 
     24 N          24.8483   -0.9259   -4.1321 N.am      4 UNK        -0.4209 
     25 C          24.5656   -0.7964   -5.4403 C.2       3 UNK         0.4942 
     26 O          24.5442    0.2785   -6.0421 O.2       3 UNK        -0.5208 
     27 CA         24.2469   -2.0832   -6.2299 C.3       3 UNK         0.0250 
     28 CB         25.3111   -2.3449   -7.3083 C.3       3 UNK        -0.1990 
     29 N          24.1441   -3.2736   -5.3835 N.am      3 UNK        -0.4232 
     30 C          23.0369   -3.6603   -4.7377 C.2       2 UNK         0.4993 
     31 O          21.9501   -3.0894   -4.8325 O.2       2 UNK        -0.5286 
     32 CA         23.1711   -4.8817   -3.8113 C.3       2 UNK         0.0209 
     33 CB         22.7908   -6.1703   -4.5587 C.3       2 UNK        -0.1931 
     34 N          24.5065   -5.0414   -3.2211 N.am      2 UNK        -0.4546 
     35 C          25.0810   -4.1802   -2.3671 C.2       1 UNK         0.5154 
     36 O          24.5603   -3.1125   -2.0421 O.2       1 UNK        -0.5181 
     37 C          28.7023    3.1062   -3.6841 C.2       5 UNK         0.5014 
     38 O          28.8766    4.2548   -3.2706 O.2       5 UNK        -0.5248 
     39 N          28.4638    2.8132   -4.9647 N.am      6 UNK        -0.4434 
     40 CA         28.3388    3.7659   -6.0611 C.3       6 UNK         0.0363 
     41 CB         26.8685    4.2100   -6.1760 C.3       6 UNK        -0.1936 
     42 C          28.8190    3.1049   -7.3574 C.2       6 UNK         0.5081 
     43 O          29.0050    1.8871   -7.3965 O.2       6 UNK        -0.5248 
     44 N          28.9712    3.9156   -8.4146 N.am      7 UNK        -0.4718 
     45 CA         29.4828    3.5296   -9.7389 C.3       7 UNK         0.0273 
     46 CB         29.4497    4.7524  -10.6692 C.3       7 UNK        -0.1935 
     47 C          28.7758    2.3331  -10.4049 C.2       7 UNK         0.5018 
     48 O          29.4074    1.6329  -11.1961 O.2       7 UNK        -0.5186 
     49 N          27.5130    2.0780  -10.0330 N.am      8 UNK        -0.4240 
     50 CA         26.7359    0.8923  -10.4078 C.3       8 UNK         0.0235 
     51 CB         25.3217    1.0112   -9.8166 C.3       8 UNK        -0.2000 
     52 C          27.3804   -0.4443   -9.9861 C.2       8 UNK         0.4941 
     53 O          27.1544   -1.4506  -10.6584 O.2       8 UNK        -0.5273 
     54 N          28.1862   -0.4348   -8.9132 N.am      9 UNK        -0.4262 
     55 CA         28.9685   -1.5824   -8.4465 C.3       9 UNK         0.0264 
     56 CB         29.1429   -1.4811   -6.9231 C.3       9 UNK        -0.1955 
     57 C          30.3382   -1.7073   -9.1443 C.2       9 UNK         0.5031 
     58 O          31.0985   -2.6094   -8.7893 O.2       9 UNK        -0.5390 
     59 N          30.6372   -0.8182  -10.1070 N.am      10 UNK        -0.4204 
     60 CA         31.8835   -0.7189  -10.8755 C.3       10 UNK         0.0237 
     61 CB         32.0927   -1.9640  -11.7651 C.3       10 UNK        -0.1985 
     62 C          33.1002   -0.3868   -9.9908 C.2       10 UNK         0.4970 
     63 O          34.1547   -1.0098  -10.1291 O.2       10 UNK        -0.4914 
     64 N          32.9288    0.5998   -9.0999 N.am      11 UNK        -0.4285 
     65 CA         33.9702    1.0965   -8.1841 C.3       11 UNK         0.1007 
     66 C          35.1645    1.8218   -8.8728 C.2       11 UNK         0.5703 
     67 N          35.0541    2.2491  -10.1255 N.am      11 UNK        -0.7361 
     68 O          36.2130    1.9960   -8.2563 O.2       11 UNK        -0.4986 
     69 C69        33.3803    1.9883   -7.0591 C.3       12 UNK        -0.0947 
     70 S70        32.0524    1.1870   -6.1040 S.3       12 UNK        -0.2240 
     71 C71        33.0211    0.2012   -4.9272 C.3       12 UNK         0.0194 
     72 H72        27.8795   -8.0946   -3.0380 H         1 UNK         0.0906 
     73 H73        27.7046   -8.8533   -1.4548 H         1 UNK         0.0906 
     74 H74        26.3947   -8.9588   -2.6337 H         1 UNK         0.0906 
     75 H75        27.6160   -5.8628   -2.9523 H         1 UNK         0.3140 
     76 H76        26.2961   -4.5890   -0.6980 H         1 UNK         0.1085 
     77 H77        28.3495   -3.6365   -1.3405 H         1 UNK         0.0836 
     78 H78        27.1410   -2.4623   -1.7457 H         1 UNK         0.0836 
     79 H79        30.3718   -4.0104   -4.3932 H         1 UNK         0.0731 
     80 H80        30.1499   -4.2851   -2.6901 H         1 UNK         0.0731 
     81 H81        31.5901   -2.1062   -5.1211 H         1 UNK         0.1312 
     82 H82        32.4596    1.1068   -2.4230 H         1 UNK         0.1406 
     83 H83        29.9007   -2.0866   -1.1726 H         1 UNK         0.1631 
     84 H84        31.6866    1.0456   -0.1512 H         1 UNK         0.0717 
     85 H85        31.1368   -0.4839    0.4845 H         1 UNK         0.0717 
     86 H86        28.7070    3.1149   -0.8654 H         1 UNK         0.0934 
     87 H87        30.2988    2.6737   -1.4185 H         1 UNK         0.0934 
     88 H88        29.3405    1.1519   -3.1285 H         1 UNK         0.0739 
     89 H89        26.8167    1.6273   -1.7711 H         1 UNK         0.3093 
     90 H90        25.3594   -0.3936   -2.2187 H         1 UNK         0.0818 
     91 H91        24.5928    1.9347   -2.2588 H         1 UNK         0.0819 
     92 H92        24.3786    1.9056   -3.9996 H         1 UNK         0.0819 
     93 H93        23.3269    0.9457   -2.9603 H         1 UNK         0.0819 
     94 H94        24.8049   -1.8573   -3.7371 H         1 UNK         0.3041 
     95 H95        23.2924   -1.9177   -6.7343 H         1 UNK         0.0784 
     96 H96        25.0228   -3.1709   -7.9584 H         1 UNK         0.0793 
     97 H97        25.4503   -1.4697   -7.9429 H         1 UNK         0.0793 
     98 H98        26.2776   -2.5878   -6.8679 H         1 UNK         0.0793 
     99 H99        24.9909   -3.8060   -5.2419 H         1 UNK         0.3024 
    100 H100       22.4632   -4.7389   -2.9914 H         1 UNK         0.1171 
    101 H101       23.4808   -6.3825   -5.3764 H         1 UNK         0.0786 
    102 H102       22.7865   -7.0311   -3.8896 H         1 UNK         0.0786 
    103 H103       21.7908   -6.0919   -4.9881 H         1 UNK         0.0786 
    104 H104       25.0041   -5.8945   -3.4313 H         1 UNK         0.2977 
    105 H105       28.3375    1.8368   -5.2273 H         1 UNK         0.3127 
    106 H106       28.9751    4.6323   -5.8687 H         1 UNK         0.0770 
    107 H107       26.7305    4.9326   -6.9809 H         1 UNK         0.0814 
    108 H108       26.5265    4.6858   -5.2568 H         1 UNK         0.0814 
    109 H109       26.2096    3.3635   -6.3768 H         1 UNK         0.0814 
    110 H110       28.7728    4.8984   -8.2895 H         1 UNK         0.2983 
    111 H111       30.5256    3.2369   -9.6004 H         1 UNK         0.0947 
    112 H112       29.8476    4.5054  -11.6548 H         1 UNK         0.0806 
    113 H113       30.0549    5.5692  -10.2755 H         1 UNK         0.0806 
    114 H114       28.4340    5.1234  -10.8118 H         1 UNK         0.0806 
    115 H115       27.0889    2.7046   -9.3650 H         1 UNK         0.3000 
    116 H116       26.6560    0.8843  -11.4969 H         1 UNK         0.0850 
    117 H117       25.3430    1.0580   -8.7265 H         1 UNK         0.0810 
    118 H118       24.7090    0.1517  -10.0926 H         1 UNK         0.0810 
    119 H119       24.8103    1.9018  -10.1821 H         1 UNK         0.0810 
    120 H120       28.3378    0.4374   -8.4081 H         1 UNK         0.3040 
    121 H121       28.4147   -2.4995   -8.6571 H         1 UNK         0.0766 
    122 H122       28.1853   -1.3804   -6.4160 H         1 UNK         0.0812 
    123 H123       29.7542   -0.6246   -6.6399 H         1 UNK         0.0812 
    124 H124       29.6227   -2.3743   -6.5230 H         1 UNK         0.0812 
    125 H125       29.9469   -0.1081  -10.3313 H         1 UNK         0.3205 
    126 H126       31.7576    0.1349  -11.5429 H         1 UNK         0.0754 
    127 H127       32.9466   -1.8289  -12.4301 H         1 UNK         0.0769 
    128 H128       31.2216   -2.1531  -12.3924 H         1 UNK         0.0769 
    129 H129       32.2818   -2.8607  -11.1742 H         1 UNK         0.0769 
    130 H130       32.0247    1.0395   -9.0212 H         1 UNK         0.2981 
    131 H131       34.4032    0.2168   -7.7046 H         1 UNK         0.0541 
    132 H132       34.2001    2.1133  -10.6410 H         1 UNK         0.3459 
    133 H133       35.8370    2.7133  -10.5581 H         1 UNK         0.3459 
    134 H134       32.9694    2.9054   -7.4852 H         1 UNK         0.0612 
    135 H135       34.1604    2.3034   -6.3634 H         1 UNK         0.0612 
    136 H136       33.7678    0.8356   -4.4473 H         1 UNK         0.0624 
    137 H137       33.5697   -0.5711   -5.4682 H         1 UNK         0.0624 
@<TRIPOS>BOND
     1    1    2 1    
     2    1   72 1    
     3    1   73 1    
     4    1   74 1    
     5    2    3 2    
     6    2    4 am   BACKBONE|DICT|INTERRES
     7    4    5 1    
     8    4   75 1    
     9    5    6 1    
    10    5   35 1    
    11    5   76 1    
    12    6    7 1    
    13    6   77 1    
    14    6   78 1    
    15    7    8 1    
    16    8    9 1    
    17    8   79 1    
    18    8   80 1    
    19    9   10 ar   
    20    9   14 ar   
    21   10   11 ar   
    22   10   81 1    
    23   11   12 ar   
    24   11   71 1    
    25   12   13 ar   
    26   12   82 1    
    27   13   14 ar   
    28   13   15 1    
    29   14   83 1    
    30   15   16 1    
    31   15   84 1    
    32   15   85 1    
    33   16   17 1    
    34   17   18 1    
    35   17   86 1    
    36   17   87 1    
    37   18   19 1    
    38   18   37 1    
    39   18   88 1    
    40   19   20 am   BACKBONE|DICT|INTERRES
    41   19   89 1    
    42   20   21 2    
    43   20   22 1    
    44   22   23 1    
    45   22   24 1    
    46   22   90 1    
    47   23   91 1    
    48   23   92 1    
    49   23   93 1    
    50   24   25 am   BACKBONE|DICT|INTERRES
    51   24   94 1    
    52   25   26 2    
    53   25   27 1    
    54   27   28 1    
    55   27   29 1    
    56   27   95 1    
    57   28   96 1    
    58   28   97 1    
    59   28   98 1    
    60   29   30 am   BACKBONE|DICT|INTERRES
    61   29   99 1    
    62   30   31 2    
    63   30   32 1    
    64   32   33 1    
    65   32   34 1    
    66   32  100 1    
    67   33  101 1    
    68   33  102 1    
    69   33  103 1    
    70   34   35 am   BACKBONE|DICT|INTERRES
    71   34  104 1    
    72   35   36 2    
    73   37   38 2    
    74   37   39 am   BACKBONE|DICT|INTERRES
    75   39   40 1    
    76   39  105 1    
    77   40   41 1    
    78   40   42 1    
    79   40  106 1    
    80   41  107 1    
    81   41  108 1    
    82   41  109 1    
    83   42   43 2    
    84   42   44 am   BACKBONE|DICT|INTERRES
    85   44   45 1    
    86   44  110 1    
    87   45   46 1    
    88   45   47 1    
    89   45  111 1    
    90   46  112 1    
    91   46  113 1    
    92   46  114 1    
    93   47   48 2    
    94   47   49 am   BACKBONE|DICT|INTERRES
    95   49   50 1    
    96   49  115 1    
    97   50   51 1    
    98   50   52 1    
    99   50  116 1    
   100   51  117 1    
   101   51  118 1    
   102   51  119 1    
   103   52   53 2    
   104   52   54 am   BACKBONE|DICT|INTERRES
   105   54   55 1    
   106   54  120 1    
   107   55   56 1    
   108   55   57 1    
   109   55  121 1    
   110   56  122 1    
   111   56  123 1    
   112   56  124 1    
   113   57   58 2    
   114   57   59 am   BACKBONE|DICT|INTERRES
   115   59   60 1    
   116   59  125 1    
   117   60   61 1    
   118   60   62 1    
   119   60  126 1    
   120   61  127 1    
   121   61  128 1    
   122   61  129 1    
   123   62   63 2    
   124   62   64 am   BACKBONE|DICT|INTERRES
   125   64   65 1    
   126   64  130 1    
   127   65   66 1    
   128   65   69 1    
   129   65  131 1    
   130   66   67 am   BACKBONE|DICT|INTERRES
   131   66   68 2    
   132   67  132 1    
   133   67  133 1    
   134   69   70 1    
   135   69  134 1    
   136   69  135 1    
   137   70   71 1    
   138   71  136 1    
   139   71  137 1    
@<TRIPOS>SUBSTRUCTURE
     1 UNK         1 GROUP             0       ****    0 ROOT    
