@<TRIPOS>MOLECULE
3R137
137   139    1
SMALL
USER_CHARGES


@<TRIPOS>ATOM
      1 CA         22.8562   -5.5502   -3.0588 C.3       0 UNK        -0.2020 
      2 C          24.2258   -4.8896   -3.0838 C.2       0 UNK         0.4855 
      3 O          24.5563   -4.2160   -4.0598 O.2       0 UNK        -0.5197 
      4 N          25.0129   -5.0641   -2.0107 N.am      1 UNK        -0.4892 
      5 CA         26.3747   -4.5378   -1.8316 C.3       1 UNK         0.0835 
      6 C6         27.4033   -5.2846   -2.7233 C.3       12 UNK        -0.0855 
      7 S7         29.1286   -5.0875   -2.1507 S.3       12 UNK        -0.2931 
      8 C8         29.9049   -4.3188   -3.6114 C.3       12 UNK         0.0378 
      9 C9         30.8958   -3.2243   -3.2449 C.ar      12 UNK        -0.0802 
     10 C10        32.2085   -3.2639   -3.7225 C.ar      12 UNK        -0.0944 
     11 C11        33.0889   -2.2006   -3.4797 C.ar      12 UNK        -0.0787 
     12 C12        32.6458   -1.1080   -2.7258 C.ar      12 UNK        -0.0862 
     13 C13        31.3422   -1.0678   -2.2229 C.ar      12 UNK        -0.0733 
     14 C14        30.4765   -2.1313   -2.4842 C.ar      12 UNK        -0.0832 
     15 C15        30.8735    0.1169   -1.3898 C.3       12 UNK         0.0240 
     16 S16        30.1986    1.4608   -2.4193 S.3       12 UNK        -0.2522 
     17 C17        28.5640    0.8051   -2.8982 C.3       12 UNK        -0.0967 
     18 CA         28.3647    0.7854   -4.4376 C.3       5 UNK         0.0660 
     19 N          27.5425   -0.3441   -4.8839 N.am      5 UNK        -0.4015 
     20 C          27.3178   -0.6747   -6.1654 C.2       4 UNK         0.4946 
     21 O          27.8694   -0.1322   -7.1253 O.2       4 UNK        -0.5353 
     22 CA         26.2639   -1.7661   -6.4276 C.3       4 UNK         0.0277 
     23 CB         26.8941   -3.1639   -6.3827 C.3       4 UNK        -0.1981 
     24 N          25.1394   -1.7101   -5.4890 N.am      4 UNK        -0.4209 
     25 C          24.2744   -0.6885   -5.4079 C.2       3 UNK         0.4942 
     26 O          24.2913    0.2840   -6.1606 O.2       3 UNK        -0.5208 
     27 CA         23.2607   -0.7235   -4.2544 C.3       3 UNK         0.0250 
     28 CB         22.0995   -1.6828   -4.5612 C.3       3 UNK        -0.1990 
     29 N          23.8907   -1.0785   -2.9805 N.am      3 UNK        -0.4232 
     30 C          24.7929   -0.3137   -2.3477 C.2       2 UNK         0.4993 
     31 O          25.1587    0.7892   -2.7520 O.2       2 UNK        -0.5286 
     32 CA         25.4265   -0.8841   -1.0685 C.3       2 UNK         0.0209 
     33 CB         24.5963   -0.4918    0.1637 C.3       2 UNK        -0.1931 
     34 N          25.6018   -2.3390   -1.0994 N.am      2 UNK        -0.4546 
     35 C          26.3954   -2.9959   -1.9585 C.2       1 UNK         0.5154 
     36 O          27.0507   -2.4330   -2.8386 O.2       1 UNK        -0.5181 
     37 C          27.7987    2.1292   -4.9424 C.2       5 UNK         0.5014 
     38 O          28.5220    2.8897   -5.5862 O.2       5 UNK        -0.5248 
     39 N          26.5084    2.3798   -4.6689 N.am      6 UNK        -0.4434 
     40 CA         25.7757    3.5846   -5.0720 C.3       6 UNK         0.0363 
     41 CB         24.3796    3.5745   -4.4297 C.3       6 UNK        -0.1936 
     42 C          25.6675    3.7551   -6.5964 C.2       6 UNK         0.5081 
     43 O          25.7793    4.8780   -7.0890 O.2       6 UNK        -0.5248 
     44 N          25.4836    2.6413   -7.3176 N.am      7 UNK        -0.4718 
     45 CA         25.4866    2.5831   -8.7820 C.3       7 UNK         0.0273 
     46 CB         24.8820    1.2417   -9.2284 C.3       7 UNK        -0.1935 
     47 C          26.8828    2.7663   -9.4074 C.2       7 UNK         0.5018 
     48 O          26.9606    3.0016  -10.6139 O.2       7 UNK        -0.5186 
     49 N          27.9440    2.6372   -8.5946 N.am      8 UNK        -0.4240 
     50 CA         29.3634    2.6520   -8.9610 C.3       8 UNK         0.0235 
     51 CB         29.7954    4.0515   -9.4476 C.3       8 UNK        -0.2000 
     52 C          29.7070    1.5283   -9.9547 C.2       8 UNK         0.4941 
     53 O          30.3291    1.7802  -10.9902 O.2       8 UNK        -0.5273 
     54 N          29.2741    0.3018   -9.6303 N.am      9 UNK        -0.4262 
     55 CA         29.4354   -0.9018  -10.4491 C.3       9 UNK         0.0264 
     56 CB         28.4568   -1.9766   -9.9440 C.3       9 UNK        -0.1955 
     57 C          30.8935   -1.4007  -10.4723 C.2       9 UNK         0.5031 
     58 O          31.2096   -2.4166   -9.8502 O.2       9 UNK        -0.5390 
     59 N          31.7624   -0.6483  -11.1611 N.am      10 UNK        -0.4204 
     60 CA         33.1965   -0.8601  -11.4198 C.3       10 UNK         0.0237 
     61 CB         33.4366   -2.1743  -12.1886 C.3       10 UNK        -0.1985 
     62 C          34.1148   -0.7720  -10.1853 C.2       10 UNK         0.4970 
     63 O          35.2466   -0.3056  -10.3193 O.2       10 UNK        -0.4914 
     64 N          33.6278   -1.2088   -9.0198 N.am      11 UNK        -0.4285 
     65 CA         34.3340   -1.1964   -7.7304 C.3       11 UNK         0.1007 
     66 C          34.6124    0.2208   -7.1456 C.2       11 UNK         0.5703 
     67 N          33.9223    1.2660   -7.5876 N.am      11 UNK        -0.7361 
     68 O          35.4791    0.3775   -6.2897 O.2       11 UNK        -0.4986 
     69 C69        33.6054   -2.1090   -6.7067 C.3       12 UNK        -0.0947 
     70 S70        34.7473   -3.0327   -5.6241 S.3       12 UNK        -0.2240 
     71 C71        34.5219   -2.2004   -4.0132 C.3       12 UNK         0.0194 
     72 H72        22.7461   -6.2125   -3.9170 H         1 UNK         0.0906 
     73 H73        22.7019   -6.1389   -2.1548 H         1 UNK         0.0906 
     74 H74        22.0734   -4.7943   -3.1100 H         1 UNK         0.0906 
     75 H75        24.6647   -5.6188   -1.2399 H         1 UNK         0.3140 
     76 H76        26.6380   -4.7519   -0.7941 H         1 UNK         0.1085 
     77 H77        27.2902   -5.0027   -3.7692 H         1 UNK         0.0836 
     78 H78        27.1925   -6.3548   -2.6957 H         1 UNK         0.0836 
     79 H79        29.1501   -3.8623   -4.2495 H         1 UNK         0.0731 
     80 H80        30.3803   -5.0989   -4.2079 H         1 UNK         0.0731 
     81 H81        32.5341   -4.1121   -4.3081 H         1 UNK         0.1312 
     82 H82        33.3169   -0.2828   -2.5291 H         1 UNK         0.1406 
     83 H83        29.4669   -2.1149   -2.1020 H         1 UNK         0.1631 
     84 H84        31.7110    0.5098   -0.8114 H         1 UNK         0.0717 
     85 H85        30.1264   -0.1981   -0.6594 H         1 UNK         0.0717 
     86 H86        28.4579   -0.1978   -2.4930 H         1 UNK         0.0934 
     87 H87        27.7943    1.3887   -2.3895 H         1 UNK         0.0934 
     88 H88        29.3386    0.6420   -4.9114 H         1 UNK         0.0739 
     89 H89        27.1057   -0.9080   -4.1618 H         1 UNK         0.3093 
     90 H90        25.8694   -1.6039   -7.4326 H         1 UNK         0.0818 
     91 H91        27.7618   -3.2356   -7.0377 H         1 UNK         0.0819 
     92 H92        26.1831   -3.9290   -6.6948 H         1 UNK         0.0819 
     93 H93        27.2238   -3.4093   -5.3763 H         1 UNK         0.0819 
     94 H94        25.0351   -2.4960   -4.8507 H         1 UNK         0.3041 
     95 H95        22.8465    0.2817   -4.1495 H         1 UNK         0.0784 
     96 H96        21.5900   -1.3904   -5.4803 H         1 UNK         0.0793 
     97 H97        22.4402   -2.7094   -4.6941 H         1 UNK         0.0793 
     98 H98        21.3563   -1.6752   -3.7638 H         1 UNK         0.0793 
     99 H99        23.6758   -1.9867   -2.5970 H         1 UNK         0.3024 
    100 H100       26.4160   -0.4330   -0.9695 H         1 UNK         0.1171 
    101 H101       25.0830   -0.8063    1.0871 H         1 UNK         0.0786 
    102 H102       24.4697    0.5905    0.2196 H         1 UNK         0.0786 
    103 H103       23.6001   -0.9354    0.1398 H         1 UNK         0.0786 
    104 H104       25.0732   -2.8754   -0.4261 H         1 UNK         0.2977 
    105 H105       25.9912    1.7109   -4.0991 H         1 UNK         0.3127 
    106 H106       26.3238    4.4455   -4.6837 H         1 UNK         0.0770 
    107 H107       23.7942    2.7131   -4.7537 H         1 UNK         0.0814 
    108 H108       23.8190    4.4713   -4.6969 H         1 UNK         0.0814 
    109 H109       24.4438    3.5435   -3.3419 H         1 UNK         0.0814 
    110 H110       25.3104    1.7661   -6.8277 H         1 UNK         0.2983 
    111 H111       24.8531    3.3894   -9.1580 H         1 UNK         0.0947 
    112 H112       24.8277    1.1772  -10.3160 H         1 UNK         0.0806 
    113 H113       23.8692    1.1150   -8.8455 H         1 UNK         0.0806 
    114 H114       25.4800    0.3985   -8.8807 H         1 UNK         0.0806 
    115 H115       27.7600    2.4412   -7.6174 H         1 UNK         0.3000 
    116 H116       29.9175    2.4340   -8.0466 H         1 UNK         0.0850 
    117 H117       30.8721    4.0893   -9.6172 H         1 UNK         0.0810 
    118 H118       29.5560    4.8171   -8.7096 H         1 UNK         0.0810 
    119 H119       29.3097    4.3247  -10.3848 H         1 UNK         0.0810 
    120 H120       28.7808    0.1815   -8.7462 H         1 UNK         0.3040 
    121 H121       29.1555   -0.6578  -11.4762 H         1 UNK         0.0766 
    122 H122       27.4253   -1.6253   -9.9786 H         1 UNK         0.0812 
    123 H123       28.6792   -2.2619   -8.9164 H         1 UNK         0.0812 
    124 H124       28.5160   -2.8786  -10.5543 H         1 UNK         0.0812 
    125 H125       31.3907    0.2367  -11.5011 H         1 UNK         0.3205 
    126 H126       33.4932   -0.0406  -12.0765 H         1 UNK         0.0754 
    127 H127       34.4864   -2.2763  -12.4670 H         1 UNK         0.0769 
    128 H128       32.8533   -2.2073  -13.1089 H         1 UNK         0.0769 
    129 H129       33.1740   -3.0494  -11.5932 H         1 UNK         0.0769 
    130 H130       32.7029   -1.6298   -9.0338 H         1 UNK         0.2981 
    131 H131       35.3144   -1.6310   -7.9347 H         1 UNK         0.0541 
    132 H132       33.2214    1.1507   -8.3004 H         1 UNK         0.3459 
    133 H133       34.1169    2.1795   -7.2096 H         1 UNK         0.3459 
    134 H134       32.8764   -1.5467   -6.1207 H         1 UNK         0.0612 
    135 H135       33.0218   -2.8706   -7.2269 H         1 UNK         0.0612 
    136 H136       34.8872   -1.1769   -4.1074 H         1 UNK         0.0624 
    137 H137       35.1632   -2.6900   -3.2797 H         1 UNK         0.0624 
@<TRIPOS>BOND
     1    1    2 1    
     2    1   72 1    
     3    1   73 1    
     4    1   74 1    
     5    2    3 2    
     6    2    4 am   BACKBONE|DICT|INTERRES
     7    4    5 1    
     8    4   75 1    
     9    5    6 1    
    10    5   35 1    
    11    5   76 1    
    12    6    7 1    
    13    6   77 1    
    14    6   78 1    
    15    7    8 1    
    16    8    9 1    
    17    8   79 1    
    18    8   80 1    
    19    9   10 ar   
    20    9   14 ar   
    21   10   11 ar   
    22   10   81 1    
    23   11   12 ar   
    24   11   71 1    
    25   12   13 ar   
    26   12   82 1    
    27   13   14 ar   
    28   13   15 1    
    29   14   83 1    
    30   15   16 1    
    31   15   84 1    
    32   15   85 1    
    33   16   17 1    
    34   17   18 1    
    35   17   86 1    
    36   17   87 1    
    37   18   19 1    
    38   18   37 1    
    39   18   88 1    
    40   19   20 am   BACKBONE|DICT|INTERRES
    41   19   89 1    
    42   20   21 2    
    43   20   22 1    
    44   22   23 1    
    45   22   24 1    
    46   22   90 1    
    47   23   91 1    
    48   23   92 1    
    49   23   93 1    
    50   24   25 am   BACKBONE|DICT|INTERRES
    51   24   94 1    
    52   25   26 2    
    53   25   27 1    
    54   27   28 1    
    55   27   29 1    
    56   27   95 1    
    57   28   96 1    
    58   28   97 1    
    59   28   98 1    
    60   29   30 am   BACKBONE|DICT|INTERRES
    61   29   99 1    
    62   30   31 2    
    63   30   32 1    
    64   32   33 1    
    65   32   34 1    
    66   32  100 1    
    67   33  101 1    
    68   33  102 1    
    69   33  103 1    
    70   34   35 am   BACKBONE|DICT|INTERRES
    71   34  104 1    
    72   35   36 2    
    73   37   38 2    
    74   37   39 am   BACKBONE|DICT|INTERRES
    75   39   40 1    
    76   39  105 1    
    77   40   41 1    
    78   40   42 1    
    79   40  106 1    
    80   41  107 1    
    81   41  108 1    
    82   41  109 1    
    83   42   43 2    
    84   42   44 am   BACKBONE|DICT|INTERRES
    85   44   45 1    
    86   44  110 1    
    87   45   46 1    
    88   45   47 1    
    89   45  111 1    
    90   46  112 1    
    91   46  113 1    
    92   46  114 1    
    93   47   48 2    
    94   47   49 am   BACKBONE|DICT|INTERRES
    95   49   50 1    
    96   49  115 1    
    97   50   51 1    
    98   50   52 1    
    99   50  116 1    
   100   51  117 1    
   101   51  118 1    
   102   51  119 1    
   103   52   53 2    
   104   52   54 am   BACKBONE|DICT|INTERRES
   105   54   55 1    
   106   54  120 1    
   107   55   56 1    
   108   55   57 1    
   109   55  121 1    
   110   56  122 1    
   111   56  123 1    
   112   56  124 1    
   113   57   58 2    
   114   57   59 am   BACKBONE|DICT|INTERRES
   115   59   60 1    
   116   59  125 1    
   117   60   61 1    
   118   60   62 1    
   119   60  126 1    
   120   61  127 1    
   121   61  128 1    
   122   61  129 1    
   123   62   63 2    
   124   62   64 am   BACKBONE|DICT|INTERRES
   125   64   65 1    
   126   64  130 1    
   127   65   66 1    
   128   65   69 1    
   129   65  131 1    
   130   66   67 am   BACKBONE|DICT|INTERRES
   131   66   68 2    
   132   67  132 1    
   133   67  133 1    
   134   69   70 1    
   135   69  134 1    
   136   69  135 1    
   137   70   71 1    
   138   71  136 1    
   139   71  137 1    
@<TRIPOS>SUBSTRUCTURE
     1 UNK         1 GROUP             0       ****    0 ROOT    
