@<TRIPOS>MOLECULE
3R137
137   139    1
SMALL
USER_CHARGES


@<TRIPOS>ATOM
      1 CA         29.4558   -4.5334   -9.4673 C.3       0 UNK        -0.2020 
      2 C          28.8907   -4.9974   -8.1323 C.2       0 UNK         0.4855 
      3 O          28.7078   -6.1982   -7.9288 O.2       0 UNK        -0.5197 
      4 N          28.6261   -4.0553   -7.2190 N.am      1 UNK        -0.4892 
      5 CA         27.9872   -4.2950   -5.9221 C.3       1 UNK         0.0835 
      6 C6         28.1808   -3.0731   -4.9846 C.3       12 UNK        -0.0855 
      7 S7         28.1176   -3.5440   -3.2217 S.3       12 UNK        -0.2931 
      8 C8         29.8619   -3.3895   -2.7213 C.3       12 UNK         0.0378 
      9 C9         30.2704   -1.9351   -2.5373 C.ar      12 UNK        -0.0802 
     10 C10        31.1926   -1.3392   -3.4030 C.ar      12 UNK        -0.0944 
     11 C11        31.5764   -0.0066   -3.2217 C.ar      12 UNK        -0.0787 
     12 C12        31.0200    0.7351   -2.1758 C.ar      12 UNK        -0.0862 
     13 C13        30.0840    0.1542   -1.3145 C.ar      12 UNK        -0.0733 
     14 C14        29.7273   -1.1857   -1.4893 C.ar      12 UNK        -0.0832 
     15 C15        29.4345    0.9802   -0.2128 C.3       12 UNK         0.0240 
     16 S16        27.6861    1.3499   -0.5813 S.3       12 UNK        -0.2522 
     17 C17        27.8163    2.2181   -2.1814 C.3       12 UNK        -0.0967 
     18 CA         27.4443    1.2851   -3.3705 C.3       5 UNK         0.0660 
     19 N          26.0287    0.8991   -3.3624 N.am      5 UNK        -0.4015 
     20 C          24.9666    1.6702   -3.6294 C.2       4 UNK         0.4946 
     21 O          25.0429    2.8206   -4.0676 O.2       4 UNK        -0.5353 
     22 CA         23.5830    1.0473   -3.3475 C.3       4 UNK         0.0277 
     23 CB         22.4777    2.1161   -3.2524 C.3       4 UNK        -0.1981 
     24 N          23.1796    0.0464   -4.3384 N.am      4 UNK        -0.4209 
     25 C          23.7480   -1.1520   -4.5206 C.2       3 UNK         0.4942 
     26 O          24.7202   -1.5498   -3.8728 O.2       3 UNK        -0.5208 
     27 CA         23.1192   -2.0343   -5.6170 C.3       3 UNK         0.0250 
     28 CB         23.2733   -1.3844   -7.0037 C.3       3 UNK        -0.1990 
     29 N          23.7340   -3.3603   -5.6530 N.am      3 UNK        -0.4232 
     30 C          23.5267   -4.3475   -4.7742 C.2       2 UNK         0.4993 
     31 O          22.6497   -4.3188   -3.9092 O.2       2 UNK        -0.5286 
     32 CA         24.4688   -5.5662   -4.8502 C.3       2 UNK         0.0209 
     33 CB         23.9857   -6.5843   -5.9025 C.3       2 UNK        -0.1931 
     34 N          25.8915   -5.2227   -5.0312 N.am      2 UNK        -0.4546 
     35 C          26.4918   -4.6558   -6.0881 C.2       1 UNK         0.5154 
     36 O          25.8957   -4.3693   -7.1300 O.2       1 UNK        -0.5181 
     37 C          27.8660    1.8404   -4.7446 C.2       5 UNK         0.5014 
     38 O          28.0533    1.0581   -5.6764 O.2       5 UNK        -0.5248 
     39 N          27.9706    3.1733   -4.8623 N.am      6 UNK        -0.4434 
     40 CA         28.3328    3.9065   -6.0796 C.3       6 UNK         0.0363 
     41 CB         28.4239    5.4060   -5.7554 C.3       6 UNK        -0.1936 
     42 C          27.3926    3.6704   -7.2779 C.2       6 UNK         0.5081 
     43 O          27.8026    3.9101   -8.4136 O.2       6 UNK        -0.5248 
     44 N          26.1730    3.1742   -7.0203 N.am      7 UNK        -0.4718 
     45 CA         25.2216    2.7100   -8.0346 C.3       7 UNK         0.0273 
     46 CB         23.8944    2.3568   -7.3461 C.3       7 UNK        -0.1935 
     47 C          25.7287    1.5167   -8.8728 C.2       7 UNK         0.5018 
     48 O          25.2530    1.3338   -9.9939 O.2       7 UNK        -0.5186 
     49 N          26.6827    0.7432   -8.3378 N.am      8 UNK        -0.4240 
     50 CA         27.3724   -0.3451   -9.0253 C.3       8 UNK         0.0235 
     51 CB         26.6057   -1.6624   -8.8242 C.3       8 UNK        -0.2000 
     52 C          28.8067   -0.3903   -8.4883 C.2       8 UNK         0.4941 
     53 O          29.1732   -1.3293   -7.7768 O.2       8 UNK        -0.5273 
     54 N          29.5640    0.6738   -8.7881 N.am      9 UNK        -0.4262 
     55 CA         30.8880    0.9921   -8.2489 C.3       9 UNK         0.0264 
     56 CB         31.2605    2.4251   -8.6757 C.3       9 UNK        -0.1955 
     57 C          31.9950   -0.0177   -8.6169 C.2       9 UNK         0.5031 
     58 O          32.9050    0.3114   -9.3815 O.2       9 UNK        -0.5390 
     59 N          31.9398   -1.2102   -8.0090 N.am      10 UNK        -0.4204 
     60 CA         32.9621   -2.2668   -8.0708 C.3       10 UNK         0.0237 
     61 CB         32.4851   -3.4741   -7.2475 C.3       10 UNK        -0.1985 
     62 C          34.3569   -1.8237   -7.5845 C.2       10 UNK         0.4970 
     63 O          35.3578   -2.4261   -7.9732 O.2       10 UNK        -0.4914 
     64 N          34.3848   -0.7750   -6.7551 N.am      11 UNK        -0.4285 
     65 CA         35.5756   -0.0709   -6.2666 C.3       11 UNK         0.1007 
     66 C          36.3874    0.6644   -7.3744 C.2       11 UNK         0.5703 
     67 N          35.8328    0.9168   -8.5561 N.am      11 UNK        -0.7361 
     68 O          37.5453    1.0110   -7.1540 O.2       11 UNK        -0.4986 
     69 C69        35.2088    0.9159   -5.1242 C.3       12 UNK        -0.0947 
     70 S70        34.2835    0.1350   -3.7573 S.3       12 UNK        -0.2240 
     71 C71        32.5807    0.6340   -4.1654 C.3       12 UNK         0.0194 
     72 H72        30.3808   -5.0646   -9.6899 H         1 UNK         0.0906 
     73 H73        28.7436   -4.7383  -10.2660 H         1 UNK         0.0906 
     74 H74        29.6717   -3.4651   -9.4703 H         1 UNK         0.0906 
     75 H75        28.7815   -3.0745   -7.4504 H         1 UNK         0.3140 
     76 H76        28.4885   -5.1604   -5.4823 H         1 UNK         0.1085 
     77 H77        29.1435   -2.5968   -5.1775 H         1 UNK         0.0836 
     78 H78        27.4363   -2.2967   -5.1771 H         1 UNK         0.0836 
     79 H79        30.0051   -3.9192   -1.7784 H         1 UNK         0.0731 
     80 H80        30.4983   -3.8906   -3.4528 H         1 UNK         0.0731 
     81 H81        31.6205   -1.9126   -4.2134 H         1 UNK         0.1312 
     82 H82        31.3068    1.7691   -2.0408 H         1 UNK         0.1406 
     83 H83        29.0020   -1.6386   -0.8264 H         1 UNK         0.1631 
     84 H84        29.9740    1.9160   -0.0580 H         1 UNK         0.0717 
     85 H85        29.4909    0.4349    0.7304 H         1 UNK         0.0717 
     86 H86        27.1595    3.0890   -2.1459 H         1 UNK         0.0934 
     87 H87        28.8303    2.6083   -2.2846 H         1 UNK         0.0934 
     88 H88        28.0041    0.3555   -3.2583 H         1 UNK         0.0739 
     89 H89        25.8404   -0.0772   -3.1541 H         1 UNK         0.3093 
     90 H90        23.6452    0.5529   -2.3754 H         1 UNK         0.0818 
     91 H91        21.5258    1.6794   -2.9498 H         1 UNK         0.0819 
     92 H92        22.7326    2.8757   -2.5120 H         1 UNK         0.0819 
     93 H93        22.3263    2.6282   -4.2037 H         1 UNK         0.0819 
     94 H94        22.3943    0.2962   -4.9216 H         1 UNK         0.3041 
     95 H95        22.0563   -2.1538   -5.3969 H         1 UNK         0.0784 
     96 H96        22.9699   -2.0636   -7.8008 H         1 UNK         0.0793 
     97 H97        22.6520   -0.4932   -7.0939 H         1 UNK         0.0793 
     98 H98        24.3035   -1.0839   -7.1938 H         1 UNK         0.0793 
     99 H99        24.4882   -3.5008   -6.3208 H         1 UNK         0.3024 
    100 H100       24.4097   -6.0559   -3.8765 H         1 UNK         0.1171 
    101 H101       23.9797   -6.1649   -6.9089 H         1 UNK         0.0786 
    102 H102       22.9683   -6.9119   -5.6850 H         1 UNK         0.0786 
    103 H103       24.6169   -7.4728   -5.9133 H         1 UNK         0.0786 
    104 H104       26.4589   -5.3401   -4.2013 H         1 UNK         0.2977 
    105 H105       27.7228    3.7382   -4.0631 H         1 UNK         0.3127 
    106 H106       29.3238    3.5596   -6.3759 H         1 UNK         0.0770 
    107 H107       27.4650    5.8048   -5.4215 H         1 UNK         0.0814 
    108 H108       28.7260    5.9778   -6.6341 H         1 UNK         0.0814 
    109 H109       29.1612    5.6015   -4.9765 H         1 UNK         0.0814 
    110 H110       25.9084    3.0378   -6.0502 H         1 UNK         0.2983 
    111 H111       25.0434    3.5368   -8.7254 H         1 UNK         0.0947 
    112 H112       23.1500    2.0274   -8.0724 H         1 UNK         0.0806 
    113 H113       23.4777    3.2161   -6.8201 H         1 UNK         0.0806 
    114 H114       24.0259    1.5538   -6.6220 H         1 UNK         0.0806 
    115 H115       27.0452    0.9687   -7.4135 H         1 UNK         0.3000 
    116 H116       27.4297   -0.1353  -10.0957 H         1 UNK         0.0850 
    117 H117       26.5074   -1.9016   -7.7655 H         1 UNK         0.0810 
    118 H118       25.6048   -1.6105   -9.2521 H         1 UNK         0.0810 
    119 H119       27.1184   -2.4955   -9.3052 H         1 UNK         0.0810 
    120 H120       29.1536    1.3848   -9.3769 H         1 UNK         0.3040 
    121 H121       30.7986    0.9886   -7.1604 H         1 UNK         0.0766 
    122 H122       30.5156    3.1503   -8.3517 H         1 UNK         0.0812 
    123 H123       31.3550    2.5108   -9.7591 H         1 UNK         0.0812 
    124 H124       32.2143    2.7278   -8.2411 H         1 UNK         0.0812 
    125 H125       31.0793   -1.4211   -7.5101 H         1 UNK         0.3205 
    126 H126       33.0600   -2.5707   -9.1148 H         1 UNK         0.0754 
    127 H127       33.2068   -4.2910   -7.2954 H         1 UNK         0.0769 
    128 H128       31.5400   -3.8609   -7.6208 H         1 UNK         0.0769 
    129 H129       32.3501   -3.2196   -6.1958 H         1 UNK         0.0769 
    130 H130       33.5035   -0.3680   -6.4911 H         1 UNK         0.2981 
    131 H131       36.2418   -0.8295   -5.8519 H         1 UNK         0.0541 
    132 H132       36.3753    1.3912   -9.2600 H         1 UNK         0.3459 
    133 H133       34.8789    0.6410   -8.7588 H         1 UNK         0.3459 
    134 H134       34.6319    1.7575   -5.5128 H         1 UNK         0.0612 
    135 H135       36.1158    1.3466   -4.6960 H         1 UNK         0.0612 
    136 H136       32.5056    1.7219   -4.1248 H         1 UNK         0.0624 
    137 H137       32.3427    0.3470   -5.1893 H         1 UNK         0.0624 
@<TRIPOS>BOND
     1    1    2 1    
     2    1   72 1    
     3    1   73 1    
     4    1   74 1    
     5    2    3 2    
     6    2    4 am   BACKBONE|DICT|INTERRES
     7    4    5 1    
     8    4   75 1    
     9    5    6 1    
    10    5   35 1    
    11    5   76 1    
    12    6    7 1    
    13    6   77 1    
    14    6   78 1    
    15    7    8 1    
    16    8    9 1    
    17    8   79 1    
    18    8   80 1    
    19    9   10 ar   
    20    9   14 ar   
    21   10   11 ar   
    22   10   81 1    
    23   11   12 ar   
    24   11   71 1    
    25   12   13 ar   
    26   12   82 1    
    27   13   14 ar   
    28   13   15 1    
    29   14   83 1    
    30   15   16 1    
    31   15   84 1    
    32   15   85 1    
    33   16   17 1    
    34   17   18 1    
    35   17   86 1    
    36   17   87 1    
    37   18   19 1    
    38   18   37 1    
    39   18   88 1    
    40   19   20 am   BACKBONE|DICT|INTERRES
    41   19   89 1    
    42   20   21 2    
    43   20   22 1    
    44   22   23 1    
    45   22   24 1    
    46   22   90 1    
    47   23   91 1    
    48   23   92 1    
    49   23   93 1    
    50   24   25 am   BACKBONE|DICT|INTERRES
    51   24   94 1    
    52   25   26 2    
    53   25   27 1    
    54   27   28 1    
    55   27   29 1    
    56   27   95 1    
    57   28   96 1    
    58   28   97 1    
    59   28   98 1    
    60   29   30 am   BACKBONE|DICT|INTERRES
    61   29   99 1    
    62   30   31 2    
    63   30   32 1    
    64   32   33 1    
    65   32   34 1    
    66   32  100 1    
    67   33  101 1    
    68   33  102 1    
    69   33  103 1    
    70   34   35 am   BACKBONE|DICT|INTERRES
    71   34  104 1    
    72   35   36 2    
    73   37   38 2    
    74   37   39 am   BACKBONE|DICT|INTERRES
    75   39   40 1    
    76   39  105 1    
    77   40   41 1    
    78   40   42 1    
    79   40  106 1    
    80   41  107 1    
    81   41  108 1    
    82   41  109 1    
    83   42   43 2    
    84   42   44 am   BACKBONE|DICT|INTERRES
    85   44   45 1    
    86   44  110 1    
    87   45   46 1    
    88   45   47 1    
    89   45  111 1    
    90   46  112 1    
    91   46  113 1    
    92   46  114 1    
    93   47   48 2    
    94   47   49 am   BACKBONE|DICT|INTERRES
    95   49   50 1    
    96   49  115 1    
    97   50   51 1    
    98   50   52 1    
    99   50  116 1    
   100   51  117 1    
   101   51  118 1    
   102   51  119 1    
   103   52   53 2    
   104   52   54 am   BACKBONE|DICT|INTERRES
   105   54   55 1    
   106   54  120 1    
   107   55   56 1    
   108   55   57 1    
   109   55  121 1    
   110   56  122 1    
   111   56  123 1    
   112   56  124 1    
   113   57   58 2    
   114   57   59 am   BACKBONE|DICT|INTERRES
   115   59   60 1    
   116   59  125 1    
   117   60   61 1    
   118   60   62 1    
   119   60  126 1    
   120   61  127 1    
   121   61  128 1    
   122   61  129 1    
   123   62   63 2    
   124   62   64 am   BACKBONE|DICT|INTERRES
   125   64   65 1    
   126   64  130 1    
   127   65   66 1    
   128   65   69 1    
   129   65  131 1    
   130   66   67 am   BACKBONE|DICT|INTERRES
   131   66   68 2    
   132   67  132 1    
   133   67  133 1    
   134   69   70 1    
   135   69  134 1    
   136   69  135 1    
   137   70   71 1    
   138   71  136 1    
   139   71  137 1    
@<TRIPOS>SUBSTRUCTURE
     1 UNK         1 GROUP             0       ****    0 ROOT    
