@<TRIPOS>MOLECULE
3R137
137   139    1
SMALL
USER_CHARGES


@<TRIPOS>ATOM
      1 CA         30.2030   -3.3587    2.4830 C.3       0 UNK        -0.2020 
      2 C          29.6128   -2.9653    1.1371 C.2       0 UNK         0.4855 
      3 O          29.7018   -1.8011    0.7460 O.2       0 UNK        -0.5197 
      4 N          29.0208   -3.9287    0.4213 N.am      1 UNK        -0.4892 
      5 CA         28.3604   -3.7226   -0.8726 C.3       1 UNK         0.0835 
      6 C6         28.1323   -5.0618   -1.6233 C.3       12 UNK        -0.0855 
      7 S7         29.5864   -6.1608   -1.8022 S.3       12 UNK        -0.2931 
      8 C8         30.9884   -5.0375   -2.1506 C.3       12 UNK         0.0378 
      9 C9         30.8684   -4.2067   -3.4285 C.ar      12 UNK        -0.0802 
     10 C10        31.5961   -3.0164   -3.5247 C.ar      12 UNK        -0.0944 
     11 C11        31.5459   -2.2380   -4.6843 C.ar      12 UNK        -0.0787 
     12 C12        30.7332   -2.6388   -5.7475 C.ar      12 UNK        -0.0862 
     13 C13        30.0055   -3.8294   -5.6728 C.ar      12 UNK        -0.0733 
     14 C14        30.0925   -4.6167   -4.5202 C.ar      12 UNK        -0.0832 
     15 C15        29.1500   -4.2741   -6.8522 C.3       12 UNK         0.0240 
     16 S16        27.4331   -4.6770   -6.3860 S.3       12 UNK        -0.2522 
     17 C17        26.8472   -3.1180   -5.6449 C.3       12 UNK        -0.0967 
     18 CA         26.3182   -2.1185   -6.7078 C.3       5 UNK         0.0660 
     19 N          25.0662   -1.4842   -6.2964 N.am      5 UNK        -0.4015 
     20 C          24.1949   -0.9022   -7.1321 C.2       4 UNK         0.4946 
     21 O          24.3145   -0.9025   -8.3571 O.2       4 UNK        -0.5353 
     22 CA         22.9972   -0.1760   -6.4927 C.3       4 UNK         0.0277 
     23 CB         21.7976   -1.1282   -6.3632 C.3       4 UNK        -0.1981 
     24 N          23.3091    0.3978   -5.1799 N.am      4 UNK        -0.4209 
     25 C          24.1605    1.4152   -4.9850 C.2       3 UNK         0.4942 
     26 O          24.7237    2.0166   -5.8977 O.2       3 UNK        -0.5208 
     27 CA         24.4816    1.7859   -3.5267 C.3       3 UNK         0.0250 
     28 CB         23.4533    2.7931   -2.9880 C.3       3 UNK        -0.1990 
     29 N          24.5604    0.6298   -2.6247 N.am      3 UNK        -0.4232 
     30 C          25.4140   -0.3942   -2.7624 C.2       2 UNK         0.4993 
     31 O          26.2145   -0.5056   -3.6955 O.2       2 UNK        -0.5286 
     32 CA         25.3145   -1.5140   -1.7250 C.3       2 UNK         0.0209 
     33 CB         24.1559   -2.4695   -2.0717 C.3       2 UNK        -0.1931 
     34 N          26.5777   -2.2483   -1.7041 N.am      2 UNK        -0.4546 
     35 C          27.0116   -2.9947   -0.6832 C.2       1 UNK         0.5154 
     36 O          26.3686   -3.1558    0.3588 O.2       1 UNK        -0.5181 
     37 C          27.3631   -1.0444   -7.0608 C.2       5 UNK         0.5014 
     38 O          27.9835   -1.1316   -8.1191 O.2       5 UNK        -0.5248 
     39 N          27.4890   -0.0204   -6.2024 N.am      6 UNK        -0.4434 
     40 CA         28.3550    1.1469   -6.4004 C.3       6 UNK         0.0363 
     41 CB         28.2947    2.0455   -5.1559 C.3       6 UNK        -0.1936 
     42 C          28.0181    1.9564   -7.6671 C.2       6 UNK         0.5081 
     43 O          28.9190    2.5187   -8.2871 O.2       6 UNK        -0.5248 
     44 N          26.7328    1.9934   -8.0431 N.am      7 UNK        -0.4718 
     45 CA         26.2538    2.5784   -9.2964 C.3       7 UNK         0.0273 
     46 CB         24.7299    2.7629   -9.2184 C.3       7 UNK        -0.1935 
     47 C          26.6320    1.7489  -10.5382 C.2       7 UNK         0.5018 
     48 O          26.7818    2.3264  -11.6158 O.2       7 UNK        -0.5186 
     49 N          26.7660    0.4243  -10.3799 N.am      8 UNK        -0.4240 
     50 CA         27.1380   -0.5040  -11.4487 C.3       8 UNK         0.0235 
     51 CB         26.5571   -1.8974  -11.1534 C.3       8 UNK        -0.2000 
     52 C          28.6604   -0.5723  -11.6438 C.2       8 UNK         0.4941 
     53 O          29.1201   -0.5429  -12.7863 O.2       8 UNK        -0.5273 
     54 N          29.4117   -0.6559  -10.5395 N.am      9 UNK        -0.4262 
     55 CA         30.8709   -0.6891  -10.5116 C.3       9 UNK         0.0264 
     56 CB         31.3474   -2.1360  -10.2903 C.3       9 UNK        -0.1955 
     57 C          31.3352    0.2354   -9.3837 C.2       9 UNK         0.5031 
     58 O          31.0894   -0.0758   -8.2190 O.2       9 UNK        -0.5390 
     59 N          31.9688    1.3586   -9.7476 N.am      10 UNK        -0.4204 
     60 CA         32.3983    2.4199   -8.8323 C.3       10 UNK         0.0237 
     61 CB         33.0249    3.5678   -9.6418 C.3       10 UNK        -0.1985 
     62 C          33.3707    1.9258   -7.7482 C.2       10 UNK         0.4970 
     63 O          34.3997    1.3322   -8.0791 O.2       10 UNK        -0.4914 
     64 N          33.0309    2.2039   -6.4848 N.am      11 UNK        -0.4285 
     65 CA         33.8295    1.8438   -5.3031 C.3       11 UNK         0.1007 
     66 C          35.0260    2.7989   -5.0201 C.2       11 UNK         0.5703 
     67 N          35.1670    3.9208   -5.7168 N.am      11 UNK        -0.7361 
     68 O          35.8508    2.5092   -4.1565 O.2       11 UNK        -0.4986 
     69 C69        32.9402    1.6694   -4.0396 C.3       12 UNK        -0.0947 
     70 S70        31.5507    0.4952   -4.2211 S.3       12 UNK        -0.2240 
     71 C71        32.4110   -0.9941   -4.8054 C.3       12 UNK         0.0194 
     72 H72        29.7245   -2.7927    3.2819 H         1 UNK         0.0906 
     73 H73        30.0698   -4.4199    2.6926 H         1 UNK         0.0906 
     74 H74        31.2705   -3.1409    2.5028 H         1 UNK         0.0906 
     75 H75        28.9581   -4.8650    0.7949 H         1 UNK         0.3140 
     76 H76        29.0008   -3.0815   -1.4825 H         1 UNK         0.1085 
     77 H77        27.7466   -4.8632   -2.6254 H         1 UNK         0.0836 
     78 H78        27.3581   -5.6470   -1.1221 H         1 UNK         0.0836 
     79 H79        31.1437   -4.3847   -1.2911 H         1 UNK         0.0731 
     80 H80        31.8912   -5.6443   -2.2301 H         1 UNK         0.0731 
     81 H81        32.2223   -2.7017   -2.7006 H         1 UNK         0.1312 
     82 H82        30.6840   -2.0312   -6.6410 H         1 UNK         0.1406 
     83 H83        29.5444   -5.5476   -4.4804 H         1 UNK         0.1631 
     84 H84        29.6059   -5.1578   -7.3002 H         1 UNK         0.0717 
     85 H85        29.1342   -3.5124   -7.6326 H         1 UNK         0.0717 
     86 H86        26.0455   -3.4009   -4.9610 H         1 UNK         0.0934 
     87 H87        27.6178   -2.6841   -5.0045 H         1 UNK         0.0934 
     88 H88        26.1018   -2.6679   -7.6273 H         1 UNK         0.0739 
     89 H89        24.9328   -1.3694   -5.3018 H         1 UNK         0.3093 
     90 H90        22.7153    0.6417   -7.1599 H         1 UNK         0.0818 
     91 H91        20.9164   -0.6080   -5.9871 H         1 UNK         0.0819 
     92 H92        21.5313   -1.5523   -7.3326 H         1 UNK         0.0819 
     93 H93        22.0100   -1.9607   -5.6911 H         1 UNK         0.0819 
     94 H94        22.8743   -0.0283   -4.3745 H         1 UNK         0.3041 
     95 H95        25.4609    2.2678   -3.5215 H         1 UNK         0.0784 
     96 H96        23.3927    3.6708   -3.6334 H         1 UNK         0.0793 
     97 H97        22.4533    2.3614   -2.9304 H         1 UNK         0.0793 
     98 H98        23.7258    3.1451   -1.9927 H         1 UNK         0.0793 
     99 H99        23.9270    0.6322   -1.8375 H         1 UNK         0.3024 
    100 H100       25.1444   -1.0628   -0.7444 H         1 UNK         0.1171 
    101 H101       23.2026   -1.9407   -2.1064 H         1 UNK         0.0786 
    102 H102       24.0545   -3.2585   -1.3263 H         1 UNK         0.0786 
    103 H103       24.3021   -2.9466   -3.0415 H         1 UNK         0.0786 
    104 H104       27.1570   -2.0980   -2.5210 H         1 UNK         0.2977 
    105 H105       26.9673   -0.0569   -5.3289 H         1 UNK         0.3127 
    106 H106       29.3759    0.7767   -6.5018 H         1 UNK         0.0770 
    107 H107       27.3098    2.4947   -5.0315 H         1 UNK         0.0814 
    108 H108       29.0170    2.8591   -5.2318 H         1 UNK         0.0814 
    109 H109       28.5285    1.4873   -4.2491 H         1 UNK         0.0814 
    110 H110       26.0332    1.6147   -7.4129 H         1 UNK         0.2983 
    111 H111       26.7118    3.5636   -9.4084 H         1 UNK         0.0947 
    112 H112       24.3451    3.2266  -10.1277 H         1 UNK         0.0806 
    113 H113       24.4505    3.4056   -8.3833 H         1 UNK         0.0806 
    114 H114       24.2147    1.8098   -9.0941 H         1 UNK         0.0806 
    115 H115       26.6699    0.0327   -9.4512 H         1 UNK         0.3000 
    116 H116       26.6972   -0.1549  -12.3853 H         1 UNK         0.0850 
    117 H117       26.7728   -2.5885  -11.9691 H         1 UNK         0.0810 
    118 H118       25.4737   -1.8578  -11.0381 H         1 UNK         0.0810 
    119 H119       26.9720   -2.3308  -10.2432 H         1 UNK         0.0810 
    120 H120       28.9558   -0.6854   -9.6266 H         1 UNK         0.3040 
    121 H121       31.2813   -0.3276  -11.4569 H         1 UNK         0.0766 
    122 H122       32.4352   -2.1828  -10.2274 H         1 UNK         0.0812 
    123 H123       31.0391   -2.7832  -11.1114 H         1 UNK         0.0812 
    124 H124       30.9473   -2.5555   -9.3661 H         1 UNK         0.0812 
    125 H125       32.1426    1.5181  -10.7290 H         1 UNK         0.3205 
    126 H126       31.5023    2.8052   -8.3436 H         1 UNK         0.0754 
    127 H127       33.3338    4.3845   -8.9880 H         1 UNK         0.0769 
    128 H128       32.3157    3.9816  -10.3591 H         1 UNK         0.0769 
    129 H129       33.9078    3.2390  -10.1918 H         1 UNK         0.0769 
    130 H130       32.1634    2.6848   -6.3002 H         1 UNK         0.2981 
    131 H131       34.2974    0.8799   -5.5068 H         1 UNK         0.0541 
    132 H132       34.4997    4.1694   -6.4284 H         1 UNK         0.3459 
    133 H133       35.9503    4.5252   -5.5246 H         1 UNK         0.3459 
    134 H134       32.5206    2.6316   -3.7409 H         1 UNK         0.0612 
    135 H135       33.5433    1.3290   -3.1958 H         1 UNK         0.0612 
    136 H136       32.7055   -0.8512   -5.8465 H         1 UNK         0.0624 
    137 H137       33.3321   -1.1288   -4.2362 H         1 UNK         0.0624 
@<TRIPOS>BOND
     1    1    2 1    
     2    1   72 1    
     3    1   73 1    
     4    1   74 1    
     5    2    3 2    
     6    2    4 am   BACKBONE|DICT|INTERRES
     7    4    5 1    
     8    4   75 1    
     9    5    6 1    
    10    5   35 1    
    11    5   76 1    
    12    6    7 1    
    13    6   77 1    
    14    6   78 1    
    15    7    8 1    
    16    8    9 1    
    17    8   79 1    
    18    8   80 1    
    19    9   10 ar   
    20    9   14 ar   
    21   10   11 ar   
    22   10   81 1    
    23   11   12 ar   
    24   11   71 1    
    25   12   13 ar   
    26   12   82 1    
    27   13   14 ar   
    28   13   15 1    
    29   14   83 1    
    30   15   16 1    
    31   15   84 1    
    32   15   85 1    
    33   16   17 1    
    34   17   18 1    
    35   17   86 1    
    36   17   87 1    
    37   18   19 1    
    38   18   37 1    
    39   18   88 1    
    40   19   20 am   BACKBONE|DICT|INTERRES
    41   19   89 1    
    42   20   21 2    
    43   20   22 1    
    44   22   23 1    
    45   22   24 1    
    46   22   90 1    
    47   23   91 1    
    48   23   92 1    
    49   23   93 1    
    50   24   25 am   BACKBONE|DICT|INTERRES
    51   24   94 1    
    52   25   26 2    
    53   25   27 1    
    54   27   28 1    
    55   27   29 1    
    56   27   95 1    
    57   28   96 1    
    58   28   97 1    
    59   28   98 1    
    60   29   30 am   BACKBONE|DICT|INTERRES
    61   29   99 1    
    62   30   31 2    
    63   30   32 1    
    64   32   33 1    
    65   32   34 1    
    66   32  100 1    
    67   33  101 1    
    68   33  102 1    
    69   33  103 1    
    70   34   35 am   BACKBONE|DICT|INTERRES
    71   34  104 1    
    72   35   36 2    
    73   37   38 2    
    74   37   39 am   BACKBONE|DICT|INTERRES
    75   39   40 1    
    76   39  105 1    
    77   40   41 1    
    78   40   42 1    
    79   40  106 1    
    80   41  107 1    
    81   41  108 1    
    82   41  109 1    
    83   42   43 2    
    84   42   44 am   BACKBONE|DICT|INTERRES
    85   44   45 1    
    86   44  110 1    
    87   45   46 1    
    88   45   47 1    
    89   45  111 1    
    90   46  112 1    
    91   46  113 1    
    92   46  114 1    
    93   47   48 2    
    94   47   49 am   BACKBONE|DICT|INTERRES
    95   49   50 1    
    96   49  115 1    
    97   50   51 1    
    98   50   52 1    
    99   50  116 1    
   100   51  117 1    
   101   51  118 1    
   102   51  119 1    
   103   52   53 2    
   104   52   54 am   BACKBONE|DICT|INTERRES
   105   54   55 1    
   106   54  120 1    
   107   55   56 1    
   108   55   57 1    
   109   55  121 1    
   110   56  122 1    
   111   56  123 1    
   112   56  124 1    
   113   57   58 2    
   114   57   59 am   BACKBONE|DICT|INTERRES
   115   59   60 1    
   116   59  125 1    
   117   60   61 1    
   118   60   62 1    
   119   60  126 1    
   120   61  127 1    
   121   61  128 1    
   122   61  129 1    
   123   62   63 2    
   124   62   64 am   BACKBONE|DICT|INTERRES
   125   64   65 1    
   126   64  130 1    
   127   65   66 1    
   128   65   69 1    
   129   65  131 1    
   130   66   67 am   BACKBONE|DICT|INTERRES
   131   66   68 2    
   132   67  132 1    
   133   67  133 1    
   134   69   70 1    
   135   69  134 1    
   136   69  135 1    
   137   70   71 1    
   138   71  136 1    
   139   71  137 1    
@<TRIPOS>SUBSTRUCTURE
     1 UNK         1 GROUP             0       ****    0 ROOT    
