@<TRIPOS>MOLECULE
3R137
137   139    1
SMALL
USER_CHARGES


@<TRIPOS>ATOM
      1 CA         29.1800   -7.5420   -5.5609 C.3       0 UNK        -0.2020 
      2 C          28.6363   -7.1063   -4.2085 C.2       0 UNK         0.4855 
      3 O          28.3031   -7.9526   -3.3785 O.2       0 UNK        -0.5197 
      4 N          28.5423   -5.7938   -3.9813 N.am      1 UNK        -0.4892 
      5 CA         28.0307   -5.1743   -2.7627 C.3       1 UNK         0.0835 
      6 C6         29.1263   -5.0962   -1.6669 C.3       12 UNK        -0.0855 
      7 S7         28.5588   -4.3453   -0.0993 S.3       12 UNK        -0.2931 
      8 C8         29.9947   -3.3328    0.3856 C.3       12 UNK         0.0378 
      9 C9         30.2317   -2.1397   -0.5344 C.ar      12 UNK        -0.0802 
     10 C10        31.2815   -2.1629   -1.4569 C.ar      12 UNK        -0.0944 
     11 C11        31.5501   -1.0557   -2.2698 C.ar      12 UNK        -0.0787 
     12 C12        30.7661    0.0963   -2.1311 C.ar      12 UNK        -0.0862 
     13 C13        29.7240    0.1431   -1.1973 C.ar      12 UNK        -0.0733 
     14 C14        29.4507   -0.9860   -0.4163 C.ar      12 UNK        -0.0832 
     15 C15        28.9464    1.4340   -0.9632 C.3       12 UNK         0.0240 
     16 S16        27.6130    1.6943   -2.1743 S.3       12 UNK        -0.2522 
     17 C17        28.3998    2.8350   -3.3695 C.3       12 UNK        -0.0967 
     18 CA         27.9737    2.6327   -4.8468 C.3       5 UNK         0.0660 
     19 N          28.1044    1.2410   -5.2753 N.am      5 UNK        -0.4015 
     20 C          28.8825    0.8210   -6.2799 C.2       4 UNK         0.4946 
     21 O          29.5493    1.5622   -7.0019 O.2       4 UNK        -0.5353 
     22 CA         28.9301   -0.6901   -6.5494 C.3       4 UNK         0.0277 
     23 CB         30.0395   -1.3263   -5.7089 C.3       4 UNK        -0.1981 
     24 N          27.6693   -1.3806   -6.2949 N.am      4 UNK        -0.4209 
     25 C          26.5041   -1.0941   -6.8932 C.2       3 UNK         0.4942 
     26 O          26.3895   -0.2498   -7.7830 O.2       3 UNK        -0.5208 
     27 CA         25.2468   -1.8168   -6.3675 C.3       3 UNK         0.0250 
     28 CB         24.9362   -3.0432   -7.2384 C.3       3 UNK        -0.1990 
     29 N          25.3388   -2.2260   -4.9579 N.am      3 UNK        -0.4232 
     30 C          25.6008   -1.3935   -3.9391 C.2       2 UNK         0.4993 
     31 O          25.7121   -0.1783   -4.0805 O.2       2 UNK        -0.5286 
     32 CA         25.8529   -1.9935   -2.5471 C.3       2 UNK         0.0209 
     33 CB         24.5672   -1.9448   -1.7073 C.3       2 UNK        -0.1931 
     34 N          26.4097   -3.3523   -2.5092 N.am      2 UNK        -0.4546 
     35 C          27.4934   -3.7923   -3.1664 C.2       1 UNK         0.5154 
     36 O          28.0678   -3.1636   -4.0585 O.2       1 UNK        -0.5181 
     37 C          26.5685    3.1919   -5.1454 C.2       5 UNK         0.5014 
     38 O          26.4698    4.3447   -5.5664 O.2       5 UNK        -0.5248 
     39 N          25.5111    2.3880   -4.9584 N.am      6 UNK        -0.4434 
     40 CA         24.1143    2.7870   -5.1566 C.3       6 UNK         0.0363 
     41 CB         23.1809    1.7705   -4.4787 C.3       6 UNK        -0.1936 
     42 C          23.7424    2.9562   -6.6369 C.2       6 UNK         0.5081 
     43 O          23.0725    3.9301   -6.9808 O.2       6 UNK        -0.5248 
     44 N          24.1963    2.0231   -7.4856 N.am      7 UNK        -0.4718 
     45 CA         24.0402    2.0867   -8.9442 C.3       7 UNK         0.0273 
     46 CB         23.6244    0.7030   -9.4758 C.3       7 UNK        -0.1935 
     47 C          25.3209    2.5935   -9.6340 C.2       7 UNK         0.5018 
     48 O          25.3396    2.6961  -10.8611 O.2       7 UNK        -0.5186 
     49 N          26.3569    2.9017   -8.8370 N.am      8 UNK        -0.4240 
     50 CA         27.6783    3.4070   -9.2236 C.3       8 UNK         0.0235 
     51 CB         27.5659    4.8319   -9.8065 C.3       8 UNK        -0.2000 
     52 C          28.4647    2.4450  -10.1370 C.2       8 UNK         0.4941 
     53 O          29.2297    2.9030  -10.9880 O.2       8 UNK        -0.5273 
     54 N          28.2741    1.1293   -9.9505 N.am      9 UNK        -0.4262 
     55 CA         28.9340    0.0861  -10.7428 C.3       9 UNK         0.0264 
     56 CB         28.1845   -1.2446  -10.5577 C.3       9 UNK        -0.1955 
     57 C          30.4405   -0.0796  -10.4501 C.2       9 UNK         0.5031 
     58 O          31.1403   -0.6329  -11.2998 O.2       9 UNK        -0.5390 
     59 N          30.8985    0.4044   -9.2828 N.am      10 UNK        -0.4204 
     60 CA         32.2446    0.3223   -8.6990 C.3       10 UNK         0.0237 
     61 CB         33.3054    0.9506   -9.6248 C.3       10 UNK        -0.1985 
     62 C          32.6541   -1.0995   -8.2670 C.2       10 UNK         0.4970 
     63 O          32.2982   -2.0860   -8.9136 O.2       10 UNK        -0.4914 
     64 N          33.4221   -1.1716   -7.1734 N.am      11 UNK        -0.4285 
     65 CA         34.0847   -2.3989   -6.7085 C.3       11 UNK         0.1007 
     66 C          35.3962   -2.6558   -7.4992 C.2       11 UNK         0.5703 
     67 N          35.7778   -3.9136   -7.6744 N.am      11 UNK        -0.7361 
     68 O          36.0873   -1.7301   -7.9224 O.2       11 UNK        -0.4986 
     69 C69        34.3532   -2.3648   -5.1803 C.3       12 UNK        -0.0947 
     70 S70        32.8285   -2.6169   -4.2135 S.3       12 UNK        -0.2240 
     71 C71        32.7249   -1.0729   -3.2475 C.3       12 UNK         0.0194 
     72 H72        30.0740   -8.1506   -5.4272 H         1 UNK         0.0906 
     73 H73        28.4373   -8.1388   -6.0897 H         1 UNK         0.0906 
     74 H74        29.4411   -6.6906   -6.1894 H         1 UNK         0.0906 
     75 H75        28.7939   -5.1190   -4.6947 H         1 UNK         0.3140 
     76 H76        27.1942   -5.7709   -2.3913 H         1 UNK         0.1085 
     77 H77        29.9911   -4.5531   -2.0494 H         1 UNK         0.0836 
     78 H78        29.4873   -6.0997   -1.4366 H         1 UNK         0.0836 
     79 H79        30.8807   -3.9686    0.4283 H         1 UNK         0.0731 
     80 H80        29.8372   -2.9721    1.4031 H         1 UNK         0.0731 
     81 H81        31.9035   -3.0441   -1.5333 H         1 UNK         0.1312 
     82 H82        30.9873    0.9693   -2.7287 H         1 UNK         0.1406 
     83 H83        28.6531   -0.9566    0.3139 H         1 UNK         0.1631 
     84 H84        29.6276    2.2861   -0.9624 H         1 UNK         0.0717 
     85 H85        28.4985    1.4191    0.0315 H         1 UNK         0.0717 
     86 H86        28.2085    3.8613   -3.0493 H         1 UNK         0.0934 
     87 H87        29.4814    2.7126   -3.3072 H         1 UNK         0.0934 
     88 H88        28.6520    3.2502   -5.4400 H         1 UNK         0.0739 
     89 H89        27.5610    0.5635   -4.7518 H         1 UNK         0.3093 
     90 H90        29.1754   -0.8370   -7.5994 H         1 UNK         0.0818 
     91 H91        30.9833   -0.8004   -5.8448 H         1 UNK         0.0819 
     92 H92        29.8087   -1.2919   -4.6438 H         1 UNK         0.0819 
     93 H93        30.2024   -2.3685   -5.9837 H         1 UNK         0.0819 
     94 H94        27.6826   -2.0710   -5.5466 H         1 UNK         0.3041 
     95 H95        24.4136   -1.1164   -6.4511 H         1 UNK         0.0784 
     96 H96        24.8419   -2.7615   -8.2884 H         1 UNK         0.0793 
     97 H97        25.7232   -3.7955   -7.1716 H         1 UNK         0.0793 
     98 H98        23.9962   -3.5112   -6.9453 H         1 UNK         0.0793 
     99 H99        25.2799   -3.2144   -4.7614 H         1 UNK         0.3024 
    100 H100       26.5924   -1.3462   -2.0695 H         1 UNK         0.1171 
    101 H101       24.7588   -2.2222   -0.6706 H         1 UNK         0.0786 
    102 H102       24.1453   -0.9383   -1.6968 H         1 UNK         0.0786 
    103 H103       23.8026   -2.6155   -2.1011 H         1 UNK         0.0786 
    104 H104       26.0200   -3.9576   -1.8006 H         1 UNK         0.2977 
    105 H105       25.6562    1.4468   -4.5871 H         1 UNK         0.3127 
    106 H106       23.9702    3.7522   -4.6660 H         1 UNK         0.0770 
    107 H107       23.2622    0.7808   -4.9295 H         1 UNK         0.0814 
    108 H108       22.1390    2.0820   -4.5623 H         1 UNK         0.0814 
    109 H109       23.4067    1.6722   -3.4167 H         1 UNK         0.0814 
    110 H110       24.7535    1.2566   -7.1300 H         1 UNK         0.2983 
    111 H111       23.2463    2.7899   -9.2053 H         1 UNK         0.0947 
    112 H112       23.4008    0.7492  -10.5424 H         1 UNK         0.0806 
    113 H113       22.7276    0.3384   -8.9749 H         1 UNK         0.0806 
    114 H114       24.4075   -0.0425   -9.3463 H         1 UNK         0.0806 
    115 H115       26.2113    2.7787   -7.8459 H         1 UNK         0.3000 
    116 H116       28.2544    3.4819   -8.3006 H         1 UNK         0.0850 
    117 H117       28.5522    5.2701   -9.9641 H         1 UNK         0.0810 
    118 H118       27.0240    5.4943   -9.1313 H         1 UNK         0.0810 
    119 H119       27.0509    4.8365  -10.7676 H         1 UNK         0.0810 
    120 H120       27.6164    0.8229   -9.2412 H         1 UNK         0.3040 
    121 H121       28.8462    0.3680  -11.7944 H         1 UNK         0.0766 
    122 H122       27.1325   -1.1479  -10.8274 H         1 UNK         0.0812 
    123 H123       28.2324   -1.6054   -9.5313 H         1 UNK         0.0812 
    124 H124       28.6111   -2.0219  -11.1930 H         1 UNK         0.0812 
    125 H125       30.2238    0.8624   -8.6752 H         1 UNK         0.3205 
    126 H126       32.1943    0.9338   -7.7965 H         1 UNK         0.0754 
    127 H127       34.2724    1.0125   -9.1240 H         1 UNK         0.0769 
    128 H128       33.0262    1.9625   -9.9188 H         1 UNK         0.0769 
    129 H129       33.4528    0.3653  -10.5329 H         1 UNK         0.0769 
    130 H130       33.7153   -0.3190   -6.7210 H         1 UNK         0.2981 
    131 H131       33.4216   -3.2432   -6.9101 H         1 UNK         0.0541 
    132 H132       35.2265   -4.6803   -7.3211 H         1 UNK         0.3459 
    133 H133       36.6337   -4.1006   -8.1732 H         1 UNK         0.3459 
    134 H134       35.0366   -3.1649   -4.8894 H         1 UNK         0.0612 
    135 H135       34.8403   -1.4324   -4.8898 H         1 UNK         0.0612 
    136 H136       32.6577   -0.2340   -3.9419 H         1 UNK         0.0624 
    137 H137       33.6489   -0.9429   -2.6829 H         1 UNK         0.0624 
@<TRIPOS>BOND
     1    1    2 1    
     2    1   72 1    
     3    1   73 1    
     4    1   74 1    
     5    2    3 2    
     6    2    4 am   BACKBONE|DICT|INTERRES
     7    4    5 1    
     8    4   75 1    
     9    5    6 1    
    10    5   35 1    
    11    5   76 1    
    12    6    7 1    
    13    6   77 1    
    14    6   78 1    
    15    7    8 1    
    16    8    9 1    
    17    8   79 1    
    18    8   80 1    
    19    9   10 ar   
    20    9   14 ar   
    21   10   11 ar   
    22   10   81 1    
    23   11   12 ar   
    24   11   71 1    
    25   12   13 ar   
    26   12   82 1    
    27   13   14 ar   
    28   13   15 1    
    29   14   83 1    
    30   15   16 1    
    31   15   84 1    
    32   15   85 1    
    33   16   17 1    
    34   17   18 1    
    35   17   86 1    
    36   17   87 1    
    37   18   19 1    
    38   18   37 1    
    39   18   88 1    
    40   19   20 am   BACKBONE|DICT|INTERRES
    41   19   89 1    
    42   20   21 2    
    43   20   22 1    
    44   22   23 1    
    45   22   24 1    
    46   22   90 1    
    47   23   91 1    
    48   23   92 1    
    49   23   93 1    
    50   24   25 am   BACKBONE|DICT|INTERRES
    51   24   94 1    
    52   25   26 2    
    53   25   27 1    
    54   27   28 1    
    55   27   29 1    
    56   27   95 1    
    57   28   96 1    
    58   28   97 1    
    59   28   98 1    
    60   29   30 am   BACKBONE|DICT|INTERRES
    61   29   99 1    
    62   30   31 2    
    63   30   32 1    
    64   32   33 1    
    65   32   34 1    
    66   32  100 1    
    67   33  101 1    
    68   33  102 1    
    69   33  103 1    
    70   34   35 am   BACKBONE|DICT|INTERRES
    71   34  104 1    
    72   35   36 2    
    73   37   38 2    
    74   37   39 am   BACKBONE|DICT|INTERRES
    75   39   40 1    
    76   39  105 1    
    77   40   41 1    
    78   40   42 1    
    79   40  106 1    
    80   41  107 1    
    81   41  108 1    
    82   41  109 1    
    83   42   43 2    
    84   42   44 am   BACKBONE|DICT|INTERRES
    85   44   45 1    
    86   44  110 1    
    87   45   46 1    
    88   45   47 1    
    89   45  111 1    
    90   46  112 1    
    91   46  113 1    
    92   46  114 1    
    93   47   48 2    
    94   47   49 am   BACKBONE|DICT|INTERRES
    95   49   50 1    
    96   49  115 1    
    97   50   51 1    
    98   50   52 1    
    99   50  116 1    
   100   51  117 1    
   101   51  118 1    
   102   51  119 1    
   103   52   53 2    
   104   52   54 am   BACKBONE|DICT|INTERRES
   105   54   55 1    
   106   54  120 1    
   107   55   56 1    
   108   55   57 1    
   109   55  121 1    
   110   56  122 1    
   111   56  123 1    
   112   56  124 1    
   113   57   58 2    
   114   57   59 am   BACKBONE|DICT|INTERRES
   115   59   60 1    
   116   59  125 1    
   117   60   61 1    
   118   60   62 1    
   119   60  126 1    
   120   61  127 1    
   121   61  128 1    
   122   61  129 1    
   123   62   63 2    
   124   62   64 am   BACKBONE|DICT|INTERRES
   125   64   65 1    
   126   64  130 1    
   127   65   66 1    
   128   65   69 1    
   129   65  131 1    
   130   66   67 am   BACKBONE|DICT|INTERRES
   131   66   68 2    
   132   67  132 1    
   133   67  133 1    
   134   69   70 1    
   135   69  134 1    
   136   69  135 1    
   137   70   71 1    
   138   71  136 1    
   139   71  137 1    
@<TRIPOS>SUBSTRUCTURE
     1 UNK         1 GROUP             0       ****    0 ROOT    
