@<TRIPOS>MOLECULE
3R137
137   139    1
SMALL
USER_CHARGES


@<TRIPOS>ATOM
      1 CA         27.9725   -6.1595    0.7877 C.3       0 UNK        -0.2020 
      2 C          27.3089   -4.8478    1.1776 C.2       0 UNK         0.4855 
      3 O          26.4169   -4.8394    2.0258 O.2       0 UNK        -0.5197 
      4 N          27.7363   -3.7378    0.5629 N.am      1 UNK        -0.4892 
      5 CA         27.1960   -2.3906    0.7901 C.3       1 UNK         0.0835 
      6 C6         28.1855   -1.2942    0.3083 C.3       12 UNK        -0.0855 
      7 S7         28.5050   -1.3090   -1.4948 S.3       12 UNK        -0.2931 
      8 C8         30.1503   -2.0810   -1.5716 C.3       12 UNK         0.0378 
      9 C9         30.4792   -2.5933   -2.9682 C.ar      12 UNK        -0.0802 
     10 C10        31.6286   -2.1505   -3.6309 C.ar      12 UNK        -0.0944 
     11 C11        31.9836   -2.6880   -4.8719 C.ar      12 UNK        -0.0787 
     12 C12        31.1645   -3.6565   -5.4637 C.ar      12 UNK        -0.0862 
     13 C13        30.0107   -4.1066   -4.8136 C.ar      12 UNK        -0.0733 
     14 C14        29.6733   -3.5677   -3.5682 C.ar      12 UNK        -0.0832 
     15 C15        29.1783   -5.2363   -5.4115 C.3       12 UNK         0.0240 
     16 S16        28.2181   -4.7358   -6.8757 S.3       12 UNK        -0.2522 
     17 C17        26.9437   -3.6518   -6.1456 C.3       12 UNK        -0.0967 
     18 CA         26.6371   -2.4166   -7.0280 C.3       5 UNK         0.0660 
     19 N          25.4416   -1.7017   -6.5765 N.am      5 UNK        -0.4015 
     20 C          24.8024   -0.7606   -7.2896 C.2       4 UNK         0.4946 
     21 O          25.1190   -0.4374   -8.4341 O.2       4 UNK        -0.5353 
     22 CA         23.6356   -0.0216   -6.6073 C.3       4 UNK         0.0277 
     23 CB         22.3138   -0.7683   -6.8463 C.3       4 UNK        -0.1981 
     24 N          23.8324    0.1763   -5.1695 N.am      4 UNK        -0.4209 
     25 C          24.8420    0.8714   -4.6268 C.2       3 UNK         0.4942 
     26 O          25.6660    1.5029   -5.2865 O.2       3 UNK        -0.5208 
     27 CA         24.9984    0.8171   -3.0970 C.3       3 UNK         0.0250 
     28 CB         24.3502    2.0505   -2.4493 C.3       3 UNK        -0.1990 
     29 N          24.4899   -0.3978   -2.4447 N.am      3 UNK        -0.4232 
     30 C          24.8181   -1.6589   -2.7606 C.2       2 UNK         0.4993 
     31 O          25.4947   -1.9710   -3.7423 O.2       2 UNK        -0.5286 
     32 CA         24.3665   -2.7516   -1.7801 C.3       2 UNK         0.0209 
     33 CB         24.0156   -4.0632   -2.5055 C.3       2 UNK        -0.1931 
     34 N          25.4632   -2.9976   -0.8486 N.am      2 UNK        -0.4546 
     35 C          25.7966   -2.1883    0.1670 C.2       1 UNK         0.5154 
     36 O          25.0696   -1.2835    0.5817 O.2       1 UNK        -0.5181 
     37 C          27.8342   -1.4551   -7.1156 C.2       5 UNK         0.5014 
     38 O          28.4781   -1.3876   -8.1630 O.2       5 UNK        -0.5248 
     39 N          28.0701   -0.6929   -6.0373 N.am      6 UNK        -0.4434 
     40 CA         29.1252    0.3177   -5.9635 C.3       6 UNK         0.0363 
     41 CB         29.1994    0.9042   -4.5466 C.3       6 UNK        -0.1936 
     42 C          28.9645    1.4327   -7.0073 C.2       6 UNK         0.5081 
     43 O          29.9630    1.8543   -7.5874 O.2       6 UNK        -0.5248 
     44 N          27.7211    1.8652   -7.2555 N.am      7 UNK        -0.4718 
     45 CA         27.3730    2.8227   -8.3052 C.3       7 UNK         0.0273 
     46 CB         25.9054    3.2525   -8.1514 C.3       7 UNK        -0.1935 
     47 C          27.6400    2.2763   -9.7175 C.2       7 UNK         0.5018 
     48 O          28.2546    2.9766  -10.5221 O.2       7 UNK        -0.5186 
     49 N          27.1948    1.0401   -9.9900 N.am      8 UNK        -0.4240 
     50 CA         27.3692    0.3646  -11.2796 C.3       8 UNK         0.0235 
     51 CB         26.5153   -0.9130  -11.3199 C.3       8 UNK        -0.2000 
     52 C          28.8368    0.0425  -11.6031 C.2       8 UNK         0.4941 
     53 O          29.2704    0.2734  -12.7324 O.2       8 UNK        -0.5273 
     54 N          29.5743   -0.4767  -10.6130 N.am      9 UNK        -0.4262 
     55 CA         30.9888   -0.8384  -10.7371 C.3       9 UNK         0.0264 
     56 CB         31.3099   -1.9346   -9.7094 C.3       9 UNK        -0.1955 
     57 C          31.9523    0.3573  -10.5996 C.2       9 UNK         0.5031 
     58 O          33.1393    0.1915  -10.8848 O.2       9 UNK        -0.5390 
     59 N          31.4389    1.5242  -10.1793 N.am      10 UNK        -0.4204 
     60 CA         32.1538    2.7811   -9.9209 C.3       10 UNK         0.0237 
     61 CB         32.7449    3.3646  -11.2224 C.3       10 UNK        -0.1985 
     62 C          33.1873    2.6437   -8.7852 C.2       10 UNK         0.4970 
     63 O          34.3356    3.0676   -8.9306 O.2       10 UNK        -0.4914 
     64 N          32.7479    2.0447   -7.6735 N.am      11 UNK        -0.4285 
     65 CA         33.5472    1.8005   -6.4621 C.3       11 UNK         0.1007 
     66 C          33.6466    3.0293   -5.5134 C.2       11 UNK         0.5703 
     67 N          32.8884    4.0992   -5.7249 N.am      11 UNK        -0.7361 
     68 O          34.4366    3.0160   -4.5720 O.2       11 UNK        -0.4986 
     69 C69        33.0581    0.5423   -5.6952 C.3       12 UNK        -0.0947 
     70 S70        33.0685   -0.9464   -6.7475 S.3       12 UNK        -0.2240 
     71 C71        33.2913   -2.2831   -5.5386 C.3       12 UNK         0.0194 
     72 H72        28.7524   -6.0178    0.0396 H         1 UNK         0.0906 
     73 H73        28.4243   -6.6256    1.6629 H         1 UNK         0.0906 
     74 H74        27.2321   -6.8473    0.3800 H         1 UNK         0.0906 
     75 H75        28.4721   -3.7992   -0.1250 H         1 UNK         0.3140 
     76 H76        27.0689   -2.2646    1.8676 H         1 UNK         0.1085 
     77 H77        27.8029   -0.3062    0.5717 H         1 UNK         0.0836 
     78 H78        29.1304   -1.3861    0.8463 H         1 UNK         0.0836 
     79 H79        30.2015   -2.9185   -0.8754 H         1 UNK         0.0731 
     80 H80        30.8928   -1.3551   -1.2361 H         1 UNK         0.0731 
     81 H81        32.2692   -1.4136   -3.1659 H         1 UNK         0.1312 
     82 H82        31.4414   -4.0839   -6.4179 H         1 UNK         0.1406 
     83 H83        28.7939   -3.9235   -3.0493 H         1 UNK         0.1631 
     84 H84        28.4989   -5.6554   -4.6676 H         1 UNK         0.0717 
     85 H85        29.8458   -6.0498   -5.6992 H         1 UNK         0.0717 
     86 H86        26.0399   -4.2490   -6.0162 H         1 UNK         0.0934 
     87 H87        27.2438   -3.3462   -5.1424 H         1 UNK         0.0934 
     88 H88        26.4306   -2.7729   -8.0398 H         1 UNK         0.0739 
     89 H89        25.1819   -1.8472   -5.6038 H         1 UNK         0.3093 
     90 H90        23.5590    0.9655   -7.0677 H         1 UNK         0.0818 
     91 H91        21.4653   -0.2119   -6.4476 H         1 UNK         0.0819 
     92 H92        22.1339   -0.9087   -7.9133 H         1 UNK         0.0819 
     93 H93        22.3169   -1.7561   -6.3837 H         1 UNK         0.0819 
     94 H94        23.2023   -0.3095   -4.5484 H         1 UNK         0.3041 
     95 H95        26.0704    0.8523   -2.8920 H         1 UNK         0.0784 
     96 H96        24.7285    2.9714   -2.8962 H         1 UNK         0.0793 
     97 H97        23.2665    2.0487   -2.5734 H         1 UNK         0.0793 
     98 H98        24.5674    2.0993   -1.3820 H         1 UNK         0.0793 
     99 H99        23.9673   -0.2510   -1.5920 H         1 UNK         0.3024 
    100 H100       23.4843   -2.4100   -1.2336 H         1 UNK         0.1171 
    101 H101       23.6750   -4.8239   -1.8028 H         1 UNK         0.0786 
    102 H102       23.2130   -3.9056   -3.2269 H         1 UNK         0.0786 
    103 H103       24.8680   -4.4708   -3.0508 H         1 UNK         0.0786 
    104 H104       26.1419   -3.6897   -1.1280 H         1 UNK         0.2977 
    105 H105       27.4786   -0.8011   -5.2253 H         1 UNK         0.3127 
    106 H106       30.0669   -0.1921   -6.1749 H         1 UNK         0.0770 
    107 H107       28.2444    1.3230   -4.2289 H         1 UNK         0.0814 
    108 H108       29.9401    1.7027   -4.4894 H         1 UNK         0.0814 
    109 H109       29.4935    0.1435   -3.8256 H         1 UNK         0.0814 
    110 H110       26.9609    1.5264   -6.6699 H         1 UNK         0.2983 
    111 H111       28.0012    3.7058   -8.1687 H         1 UNK         0.0947 
    112 H112       25.6333    3.9906   -8.9070 H         1 UNK         0.0806 
    113 H113       25.7256    3.7046   -7.1758 H         1 UNK         0.0806 
    114 H114       25.2237    2.4084   -8.2580 H         1 UNK         0.0806 
    115 H115       26.6725    0.5346   -9.2797 H         1 UNK         0.3000 
    116 H116       27.0030    1.0386  -12.0570 H         1 UNK         0.0850 
    117 H117       26.6317   -1.4334  -12.2715 H         1 UNK         0.0810 
    118 H118       25.4559   -0.6840  -11.2034 H         1 UNK         0.0810 
    119 H119       26.7944   -1.6097  -10.5281 H         1 UNK         0.0810 
    120 H120       29.1294   -0.6821   -9.7176 H         1 UNK         0.3040 
    121 H121       31.1539   -1.2604  -11.7308 H         1 UNK         0.0766 
    122 H122       31.0826   -1.6072   -8.6956 H         1 UNK         0.0812 
    123 H123       32.3645   -2.2119   -9.7380 H         1 UNK         0.0812 
    124 H124       30.7301   -2.8376   -9.9003 H         1 UNK         0.0812 
    125 H125       30.4587    1.5319   -9.9279 H         1 UNK         0.3205 
    126 H126       31.4010    3.4846   -9.5617 H         1 UNK         0.0754 
    127 H127       33.1664    4.3553  -11.0488 H         1 UNK         0.0769 
    128 H128       31.9798    3.4682  -11.9919 H         1 UNK         0.0769 
    129 H129       33.5425    2.7391  -11.6243 H         1 UNK         0.0769 
    130 H130       31.7640    1.7868   -7.6248 H         1 UNK         0.2981 
    131 H131       34.5714    1.5981   -6.7815 H         1 UNK         0.0541 
    132 H132       32.9670    4.8909   -5.1061 H         1 UNK         0.3459 
    133 H133       32.2341    4.1167   -6.4907 H         1 UNK         0.3459 
    134 H134       32.0517    0.6923   -5.3063 H         1 UNK         0.0612 
    135 H135       33.6966    0.3576   -4.8296 H         1 UNK         0.0612 
    136 H136       34.0322   -1.9920   -4.7926 H         1 UNK         0.0624 
    137 H137       33.7137   -3.1452   -6.0569 H         1 UNK         0.0624 
@<TRIPOS>BOND
     1    1    2 1    
     2    1   72 1    
     3    1   73 1    
     4    1   74 1    
     5    2    3 2    
     6    2    4 am   BACKBONE|DICT|INTERRES
     7    4    5 1    
     8    4   75 1    
     9    5    6 1    
    10    5   35 1    
    11    5   76 1    
    12    6    7 1    
    13    6   77 1    
    14    6   78 1    
    15    7    8 1    
    16    8    9 1    
    17    8   79 1    
    18    8   80 1    
    19    9   10 ar   
    20    9   14 ar   
    21   10   11 ar   
    22   10   81 1    
    23   11   12 ar   
    24   11   71 1    
    25   12   13 ar   
    26   12   82 1    
    27   13   14 ar   
    28   13   15 1    
    29   14   83 1    
    30   15   16 1    
    31   15   84 1    
    32   15   85 1    
    33   16   17 1    
    34   17   18 1    
    35   17   86 1    
    36   17   87 1    
    37   18   19 1    
    38   18   37 1    
    39   18   88 1    
    40   19   20 am   BACKBONE|DICT|INTERRES
    41   19   89 1    
    42   20   21 2    
    43   20   22 1    
    44   22   23 1    
    45   22   24 1    
    46   22   90 1    
    47   23   91 1    
    48   23   92 1    
    49   23   93 1    
    50   24   25 am   BACKBONE|DICT|INTERRES
    51   24   94 1    
    52   25   26 2    
    53   25   27 1    
    54   27   28 1    
    55   27   29 1    
    56   27   95 1    
    57   28   96 1    
    58   28   97 1    
    59   28   98 1    
    60   29   30 am   BACKBONE|DICT|INTERRES
    61   29   99 1    
    62   30   31 2    
    63   30   32 1    
    64   32   33 1    
    65   32   34 1    
    66   32  100 1    
    67   33  101 1    
    68   33  102 1    
    69   33  103 1    
    70   34   35 am   BACKBONE|DICT|INTERRES
    71   34  104 1    
    72   35   36 2    
    73   37   38 2    
    74   37   39 am   BACKBONE|DICT|INTERRES
    75   39   40 1    
    76   39  105 1    
    77   40   41 1    
    78   40   42 1    
    79   40  106 1    
    80   41  107 1    
    81   41  108 1    
    82   41  109 1    
    83   42   43 2    
    84   42   44 am   BACKBONE|DICT|INTERRES
    85   44   45 1    
    86   44  110 1    
    87   45   46 1    
    88   45   47 1    
    89   45  111 1    
    90   46  112 1    
    91   46  113 1    
    92   46  114 1    
    93   47   48 2    
    94   47   49 am   BACKBONE|DICT|INTERRES
    95   49   50 1    
    96   49  115 1    
    97   50   51 1    
    98   50   52 1    
    99   50  116 1    
   100   51  117 1    
   101   51  118 1    
   102   51  119 1    
   103   52   53 2    
   104   52   54 am   BACKBONE|DICT|INTERRES
   105   54   55 1    
   106   54  120 1    
   107   55   56 1    
   108   55   57 1    
   109   55  121 1    
   110   56  122 1    
   111   56  123 1    
   112   56  124 1    
   113   57   58 2    
   114   57   59 am   BACKBONE|DICT|INTERRES
   115   59   60 1    
   116   59  125 1    
   117   60   61 1    
   118   60   62 1    
   119   60  126 1    
   120   61  127 1    
   121   61  128 1    
   122   61  129 1    
   123   62   63 2    
   124   62   64 am   BACKBONE|DICT|INTERRES
   125   64   65 1    
   126   64  130 1    
   127   65   66 1    
   128   65   69 1    
   129   65  131 1    
   130   66   67 am   BACKBONE|DICT|INTERRES
   131   66   68 2    
   132   67  132 1    
   133   67  133 1    
   134   69   70 1    
   135   69  134 1    
   136   69  135 1    
   137   70   71 1    
   138   71  136 1    
   139   71  137 1    
@<TRIPOS>SUBSTRUCTURE
     1 UNK         1 GROUP             0       ****    0 ROOT    
