@<TRIPOS>MOLECULE
3R137
137   139    1
SMALL
USER_CHARGES


@<TRIPOS>ATOM
      1 CA         24.6332   -5.7621   -1.0840 C.3       0 UNK        -0.2020 
      2 C          25.7130   -5.5960   -2.1508 C.2       0 UNK         0.4855 
      3 O          25.5124   -6.0464   -3.2756 O.2       0 UNK        -0.5197 
      4 N          26.8661   -4.9748   -1.8577 N.am      1 UNK        -0.4892 
      5 CA         27.2496   -4.3693   -0.5710 C.3       1 UNK         0.0835 
      6 C6         28.7663   -4.0671   -0.4931 C.3       12 UNK        -0.0855 
      7 S7         29.7754   -5.5669   -0.7653 S.3       12 UNK        -0.2931 
      8 C8         31.3331   -4.8846   -1.4291 C.3       12 UNK         0.0378 
      9 C9         31.1317   -4.0458   -2.6857 C.ar      12 UNK        -0.0802 
     10 C10        31.6179   -2.7347   -2.7351 C.ar      12 UNK        -0.0944 
     11 C11        31.4177   -1.9408   -3.8683 C.ar      12 UNK        -0.0787 
     12 C12        30.7077   -2.4703   -4.9502 C.ar      12 UNK        -0.0862 
     13 C13        30.2253   -3.7813   -4.9214 C.ar      12 UNK        -0.0733 
     14 C14        30.4541   -4.5705   -3.7915 C.ar      12 UNK        -0.0832 
     15 C15        29.4721   -4.3439   -6.1191 C.3       12 UNK         0.0240 
     16 S16        27.7249   -4.7251   -5.7637 S.3       12 UNK        -0.2522 
     17 C17        27.0452   -3.1485   -5.1453 C.3       12 UNK        -0.0967 
     18 CA         26.6671   -2.1490   -6.2732 C.3       5 UNK         0.0660 
     19 N          25.4248   -1.4290   -5.9858 N.am      5 UNK        -0.4015 
     20 C          24.7377   -0.7007   -6.8784 C.2       4 UNK         0.4946 
     21 O          25.0349   -0.6142   -8.0700 O.2       4 UNK        -0.5353 
     22 CA         23.5415    0.1040   -6.3391 C.3       4 UNK         0.0277 
     23 CB         22.2787   -0.7707   -6.2886 C.3       4 UNK        -0.1981 
     24 N          23.7947    0.6816   -5.0153 N.am      4 UNK        -0.4209 
     25 C          24.7201    1.6201   -4.7683 C.2       3 UNK         0.4942 
     26 O          25.4093    2.1428   -5.6424 O.2       3 UNK        -0.5208 
     27 CA         24.9540    2.0134   -3.2988 C.3       3 UNK         0.0250 
     28 CB         24.0382    3.1842   -2.9084 C.3       3 UNK        -0.1990 
     29 N          24.7897    0.9206   -2.3324 N.am      3 UNK        -0.4232 
     30 C          25.4269   -0.2588   -2.3601 C.2       2 UNK         0.4993 
     31 O          26.1988   -0.6075   -3.2598 O.2       2 UNK        -0.5286 
     32 CA         25.1115   -1.2195   -1.2073 C.3       2 UNK         0.0209 
     33 CB         23.6431   -1.6860   -1.2523 C.3       2 UNK        -0.1931 
     34 N          25.9851   -2.3869   -1.2881 N.am      2 UNK        -0.4546 
     35 C          26.4278   -3.1034   -0.2482 C.2       1 UNK         0.5154 
     36 O          26.1787   -2.8277    0.9259 O.2       1 UNK        -0.5181 
     37 C          27.8043   -1.1480   -6.5354 C.2       5 UNK         0.5014 
     38 O          28.5237   -1.2901   -7.5240 O.2       5 UNK        -0.5248 
     39 N          27.9236   -0.1382   -5.6590 N.am      6 UNK        -0.4434 
     40 CA         28.9175    0.9335   -5.7515 C.3       6 UNK         0.0363 
     41 CB         28.8068    1.8611   -4.5324 C.3       6 UNK        -0.1936 
     42 C          28.8294    1.7343   -7.0580 C.2       6 UNK         0.5081 
     43 O          29.8666    2.0178   -7.6565 O.2       6 UNK        -0.5248 
     44 N          27.6019    2.0465   -7.4932 N.am      7 UNK        -0.4718 
     45 CA         27.3120    2.6900   -8.7741 C.3       7 UNK         0.0273 
     46 CB         25.8345    3.1115   -8.8139 C.3       7 UNK        -0.1935 
     47 C          27.6549    1.8001   -9.9800 C.2       7 UNK         0.5018 
     48 O          28.2297    2.3009  -10.9465 O.2       7 UNK        -0.5186 
     49 N          27.3114    0.5054   -9.9020 N.am      8 UNK        -0.4240 
     50 CA         27.5790   -0.4856  -10.9484 C.3       8 UNK         0.0235 
     51 CB         26.8023   -1.7793  -10.6540 C.3       8 UNK        -0.2000 
     52 C          29.0772   -0.7789  -11.1303 C.2       8 UNK         0.4941 
     53 O          29.5516   -0.8160  -12.2664 O.2       8 UNK        -0.5273 
     54 N          29.7945   -0.9735  -10.0157 N.am      9 UNK        -0.4262 
     55 CA         31.2374   -1.2314   -9.9959 C.3       9 UNK         0.0264 
     56 CB         31.6073   -1.9017   -8.6656 C.3       9 UNK        -0.1955 
     57 C          32.0920    0.0312  -10.2025 C.2       9 UNK         0.5031 
     58 O          33.2694   -0.1023  -10.5392 O.2       9 UNK        -0.5390 
     59 N          31.4991    1.2140   -9.9816 N.am      10 UNK        -0.4204 
     60 CA         32.1201    2.5418   -9.9812 C.3       10 UNK         0.0237 
     61 CB         32.6649    2.9127  -11.3777 C.3       10 UNK        -0.1985 
     62 C          33.1618    2.6769   -8.8546 C.2       10 UNK         0.4970 
     63 O          34.3141    3.0309   -9.1128 O.2       10 UNK        -0.4914 
     64 N          32.7284    2.3850   -7.6203 N.am      11 UNK        -0.4285 
     65 CA         33.5426    2.5074   -6.3972 C.3       11 UNK         0.1007 
     66 C          33.8847    3.9732   -5.9957 C.2       11 UNK         0.5703 
     67 N          33.1893    4.9845   -6.5039 N.am      11 UNK        -0.7361 
     68 O          34.8033    4.1950   -5.2102 O.2       11 UNK        -0.4986 
     69 C69        32.9135    1.7570   -5.1931 C.3       12 UNK        -0.0947 
     70 S70        32.7461   -0.0377   -5.4538 S.3       12 UNK        -0.2240 
     71 C71        31.9259   -0.5015   -3.8897 C.3       12 UNK         0.0194 
     72 H72        24.1342   -4.8144   -0.8862 H         1 UNK         0.0906 
     73 H73        23.8747   -6.4682   -1.4218 H         1 UNK         0.0906 
     74 H74        25.0421   -6.1498   -0.1521 H         1 UNK         0.0906 
     75 H75        27.5743   -4.9270   -2.5765 H         1 UNK         0.3140 
     76 H76        27.0319   -5.0927    0.2169 H         1 UNK         0.1085 
     77 H77        29.0323   -3.2993   -1.2214 H         1 UNK         0.0836 
     78 H78        29.0284   -3.6614    0.4863 H         1 UNK         0.0836 
     79 H79        31.8169   -4.3001   -0.6449 H         1 UNK         0.0731 
     80 H80        32.0094   -5.7086   -1.6598 H         1 UNK         0.0731 
     81 H81        32.1448   -2.3264   -1.8834 H         1 UNK         0.1312 
     82 H82        30.5324   -1.8580   -5.8209 H         1 UNK         0.1406 
     83 H83        30.0824   -5.5861   -3.7632 H         1 UNK         0.1631 
     84 H84        29.9671   -5.2582   -6.4489 H         1 UNK         0.0717 
     85 H85        29.5157   -3.6598   -6.9655 H         1 UNK         0.0717 
     86 H86        26.1498   -3.4248   -4.5863 H         1 UNK         0.0934 
     87 H87        27.7151   -2.7134   -4.4006 H         1 UNK         0.0934 
     88 H88        26.4988   -2.7064   -7.1974 H         1 UNK         0.0739 
     89 H89        25.1686   -1.3610   -5.0101 H         1 UNK         0.3093 
     90 H90        23.3598    0.9270   -7.0341 H         1 UNK         0.0818 
     91 H91        21.4055   -0.1899   -5.9906 H         1 UNK         0.0819 
     92 H92        22.0619   -1.1973   -7.2691 H         1 UNK         0.0819 
     93 H93        22.3858   -1.6005   -5.5888 H         1 UNK         0.0819 
     94 H94        23.2599    0.3171   -4.2406 H         1 UNK         0.3041 
     95 H95        25.9867    2.3544   -3.2155 H         1 UNK         0.0784 
     96 H96        24.1581    4.0206   -3.5989 H         1 UNK         0.0793 
     97 H97        22.9858    2.8978   -2.9235 H         1 UNK         0.0793 
     98 H98        24.2717    3.5567   -1.9108 H         1 UNK         0.0793 
     99 H99        24.1667    1.1075   -1.5596 H         1 UNK         0.3024 
    100 H100       25.3003   -0.6856   -0.2728 H         1 UNK         0.1171 
    101 H101       22.9510   -0.8465   -1.1791 H         1 UNK         0.0786 
    102 H102       23.4164   -2.3544   -0.4215 H         1 UNK         0.0786 
    103 H103       23.4178   -2.2180   -2.1776 H         1 UNK         0.0786 
    104 H104       26.2951   -2.6238   -2.2207 H         1 UNK         0.2977 
    105 H105       27.2990   -0.1213   -4.8578 H         1 UNK         0.3127 
    106 H106       29.8969    0.4588   -5.7370 H         1 UNK         0.0770 
    107 H107       27.8766    2.4271   -4.5431 H         1 UNK         0.0814 
    108 H108       29.6197    2.5873   -4.5209 H         1 UNK         0.0814 
    109 H109       28.8521    1.3035   -3.5968 H         1 UNK         0.0814 
    110 H110       26.8064    1.8453   -6.8914 H         1 UNK         0.2983 
    111 H111       27.9268    3.5903   -8.8423 H         1 UNK         0.0947 
    112 H112       25.5927    3.6046   -9.7564 H         1 UNK         0.0806 
    113 H113       25.6018    3.8121   -8.0117 H         1 UNK         0.0806 
    114 H114       25.1674    2.2545   -8.7105 H         1 UNK         0.0806 
    115 H115       26.8186    0.1777   -9.0786 H         1 UNK         0.3000 
    116 H116       27.2078   -0.0787  -11.8915 H         1 UNK         0.0850 
    117 H117       26.9794   -2.5269  -11.4282 H         1 UNK         0.0810 
    118 H118       25.7282   -1.5964  -10.6200 H         1 UNK         0.0810 
    119 H119       27.0950   -2.2201   -9.7005 H         1 UNK         0.0810 
    120 H120       29.3129   -0.9788   -9.1156 H         1 UNK         0.3040 
    121 H121       31.4778   -1.9255  -10.8041 H         1 UNK         0.0766 
    122 H122       32.6744   -2.1225   -8.6166 H         1 UNK         0.0812 
    123 H123       31.0748   -2.8425   -8.5337 H         1 UNK         0.0812 
    124 H124       31.3699   -1.2528   -7.8237 H         1 UNK         0.0812 
    125 H125       30.5437    1.1953   -9.6468 H         1 UNK         0.3205 
    126 H126       31.3219    3.2482   -9.7475 H         1 UNK         0.0754 
    127 H127       33.0169    3.9448  -11.3949 H         1 UNK         0.0769 
    128 H128       31.8910    2.8211  -12.1400 H         1 UNK         0.0769 
    129 H129       33.5030    2.2809  -11.6727 H         1 UNK         0.0769 
    130 H130       31.7519    2.1291   -7.4989 H         1 UNK         0.2981 
    131 H131       34.5014    2.0302   -6.6085 H         1 UNK         0.0541 
    132 H132       32.4301    4.8136   -7.1427 H         1 UNK         0.3459 
    133 H133       33.4248    5.9277   -6.2382 H         1 UNK         0.3459 
    134 H134       31.9305    2.1714   -4.9666 H         1 UNK         0.0612 
    135 H135       33.5197    1.8952   -4.2956 H         1 UNK         0.0612 
    136 H136       32.6325   -0.3348   -3.0752 H         1 UNK         0.0624 
    137 H137       31.0832    0.1638   -3.7050 H         1 UNK         0.0624 
@<TRIPOS>BOND
     1    1    2 1    
     2    1   72 1    
     3    1   73 1    
     4    1   74 1    
     5    2    3 2    
     6    2    4 am   BACKBONE|DICT|INTERRES
     7    4    5 1    
     8    4   75 1    
     9    5    6 1    
    10    5   35 1    
    11    5   76 1    
    12    6    7 1    
    13    6   77 1    
    14    6   78 1    
    15    7    8 1    
    16    8    9 1    
    17    8   79 1    
    18    8   80 1    
    19    9   10 ar   
    20    9   14 ar   
    21   10   11 ar   
    22   10   81 1    
    23   11   12 ar   
    24   11   71 1    
    25   12   13 ar   
    26   12   82 1    
    27   13   14 ar   
    28   13   15 1    
    29   14   83 1    
    30   15   16 1    
    31   15   84 1    
    32   15   85 1    
    33   16   17 1    
    34   17   18 1    
    35   17   86 1    
    36   17   87 1    
    37   18   19 1    
    38   18   37 1    
    39   18   88 1    
    40   19   20 am   BACKBONE|DICT|INTERRES
    41   19   89 1    
    42   20   21 2    
    43   20   22 1    
    44   22   23 1    
    45   22   24 1    
    46   22   90 1    
    47   23   91 1    
    48   23   92 1    
    49   23   93 1    
    50   24   25 am   BACKBONE|DICT|INTERRES
    51   24   94 1    
    52   25   26 2    
    53   25   27 1    
    54   27   28 1    
    55   27   29 1    
    56   27   95 1    
    57   28   96 1    
    58   28   97 1    
    59   28   98 1    
    60   29   30 am   BACKBONE|DICT|INTERRES
    61   29   99 1    
    62   30   31 2    
    63   30   32 1    
    64   32   33 1    
    65   32   34 1    
    66   32  100 1    
    67   33  101 1    
    68   33  102 1    
    69   33  103 1    
    70   34   35 am   BACKBONE|DICT|INTERRES
    71   34  104 1    
    72   35   36 2    
    73   37   38 2    
    74   37   39 am   BACKBONE|DICT|INTERRES
    75   39   40 1    
    76   39  105 1    
    77   40   41 1    
    78   40   42 1    
    79   40  106 1    
    80   41  107 1    
    81   41  108 1    
    82   41  109 1    
    83   42   43 2    
    84   42   44 am   BACKBONE|DICT|INTERRES
    85   44   45 1    
    86   44  110 1    
    87   45   46 1    
    88   45   47 1    
    89   45  111 1    
    90   46  112 1    
    91   46  113 1    
    92   46  114 1    
    93   47   48 2    
    94   47   49 am   BACKBONE|DICT|INTERRES
    95   49   50 1    
    96   49  115 1    
    97   50   51 1    
    98   50   52 1    
    99   50  116 1    
   100   51  117 1    
   101   51  118 1    
   102   51  119 1    
   103   52   53 2    
   104   52   54 am   BACKBONE|DICT|INTERRES
   105   54   55 1    
   106   54  120 1    
   107   55   56 1    
   108   55   57 1    
   109   55  121 1    
   110   56  122 1    
   111   56  123 1    
   112   56  124 1    
   113   57   58 2    
   114   57   59 am   BACKBONE|DICT|INTERRES
   115   59   60 1    
   116   59  125 1    
   117   60   61 1    
   118   60   62 1    
   119   60  126 1    
   120   61  127 1    
   121   61  128 1    
   122   61  129 1    
   123   62   63 2    
   124   62   64 am   BACKBONE|DICT|INTERRES
   125   64   65 1    
   126   64  130 1    
   127   65   66 1    
   128   65   69 1    
   129   65  131 1    
   130   66   67 am   BACKBONE|DICT|INTERRES
   131   66   68 2    
   132   67  132 1    
   133   67  133 1    
   134   69   70 1    
   135   69  134 1    
   136   69  135 1    
   137   70   71 1    
   138   71  136 1    
   139   71  137 1    
@<TRIPOS>SUBSTRUCTURE
     1 UNK         1 GROUP             0       ****    0 ROOT    
