@<TRIPOS>MOLECULE
3R137
137   139    1
SMALL
USER_CHARGES


@<TRIPOS>ATOM
      1 CA         28.0540   -5.6307   -8.8724 C.3       0 UNK        -0.2020 
      2 C          27.9182   -6.0147   -7.4065 C.2       0 UNK         0.4855 
      3 O          27.3743   -7.0749   -7.0982 O.2       0 UNK        -0.5197 
      4 N          28.4068   -5.1576   -6.4999 N.am      1 UNK        -0.4892 
      5 CA         28.3342   -5.3405   -5.0422 C.3       1 UNK         0.0835 
      6 C6         29.3320   -4.3948   -4.3291 C.3       12 UNK        -0.0855 
      7 S7         29.8478   -4.9810   -2.6831 S.3       12 UNK        -0.2931 
      8 C8         29.0536   -3.7338   -1.6092 C.3       12 UNK         0.0378 
      9 C9         29.6112   -2.3091   -1.7022 C.ar      12 UNK        -0.0802 
     10 C10        30.8371   -2.0009   -2.3116 C.ar      12 UNK        -0.0944 
     11 C11        31.3129   -0.6854   -2.3422 C.ar      12 UNK        -0.0787 
     12 C12        30.5566    0.3316   -1.7543 C.ar      12 UNK        -0.0862 
     13 C13        29.3310    0.0429   -1.1464 C.ar      12 UNK        -0.0733 
     14 C14        28.8687   -1.2756   -1.1227 C.ar      12 UNK        -0.0832 
     15 C15        28.5063    1.1519   -0.5071 C.3       12 UNK         0.0240 
     16 S16        26.9939    1.5175   -1.4559 S.3       12 UNK        -0.2522 
     17 C17        27.6856    2.0047   -3.0713 C.3       12 UNK        -0.0967 
     18 CA         27.4709    0.8968   -4.1452 C.3       5 UNK         0.0660 
     19 N          26.0570    0.6460   -4.4387 N.am      5 UNK        -0.4015 
     20 C          25.1950    1.5051   -5.0085 C.2       4 UNK         0.4946 
     21 O          25.5164    2.6226   -5.4173 O.2       4 UNK        -0.5353 
     22 CA         23.7237    1.0624   -5.1597 C.3       4 UNK         0.0277 
     23 CB         23.4012    0.7604   -6.6324 C.3       4 UNK        -0.1981 
     24 N          23.3772   -0.1102   -4.3553 N.am      4 UNK        -0.4209 
     25 C          23.2981   -0.1467   -3.0172 C.2       3 UNK         0.4942 
     26 O          23.3386    0.8562   -2.3047 O.2       3 UNK        -0.5208 
     27 CA         23.1813   -1.5378   -2.3570 C.3       3 UNK         0.0250 
     28 CB         21.7784   -1.7344   -1.7585 C.3       3 UNK        -0.1990 
     29 N          23.4845   -2.6698   -3.2466 N.am      3 UNK        -0.4232 
     30 C          24.6590   -2.8939   -3.8537 C.2       2 UNK         0.4993 
     31 O          25.6433   -2.1597   -3.7308 O.2       2 UNK        -0.5286 
     32 CA         24.6929   -4.0769   -4.8342 C.3       2 UNK         0.0209 
     33 CB         23.9042   -3.7382   -6.1121 C.3       2 UNK        -0.1931 
     34 N          26.0641   -4.4099   -5.2149 N.am      2 UNK        -0.4546 
     35 C          26.8969   -5.1721   -4.4944 C.2       1 UNK         0.5154 
     36 O          26.5641   -5.7434   -3.4544 O.2       1 UNK        -0.5181 
     37 C          28.2561    1.1119   -5.4542 C.2       5 UNK         0.5014 
     38 O          28.1412    0.2848   -6.3631 O.2       5 UNK        -0.5248 
     39 N          29.0262    2.2059   -5.5465 N.am      6 UNK        -0.4434 
     40 CA         29.8963    2.5579   -6.6715 C.3       6 UNK         0.0363 
     41 CB         30.6040    3.8854   -6.3658 C.3       6 UNK        -0.1936 
     42 C          29.1925    2.6311   -8.0361 C.2       6 UNK         0.5081 
     43 O          29.8334    2.3499   -9.0467 O.2       6 UNK        -0.5248 
     44 N          27.8901    2.9476   -8.0501 N.am      7 UNK        -0.4718 
     45 CA         27.0574    2.9546   -9.2570 C.3       7 UNK         0.0273 
     46 CB         25.6979    3.5909   -8.9307 C.3       7 UNK        -0.1935 
     47 C          26.8735    1.5635   -9.8966 C.2       7 UNK         0.5018 
     48 O          26.6119    1.4942  -11.0982 O.2       7 UNK        -0.5186 
     49 N          27.0250    0.4948   -9.1016 N.am      8 UNK        -0.4240 
     50 CA         27.0195   -0.8942   -9.5624 C.3       8 UNK         0.0235 
     51 CB         26.0728   -1.7213   -8.6753 C.3       8 UNK        -0.2000 
     52 C          28.4323   -1.4950   -9.5331 C.2       8 UNK         0.4941 
     53 O          28.8143   -2.1914  -10.4731 O.2       8 UNK        -0.5273 
     54 N          29.1679   -1.2487   -8.4415 N.am      9 UNK        -0.4262 
     55 CA         30.4498   -1.8845   -8.1386 C.3       9 UNK         0.0264 
     56 CB         30.6596   -1.8229   -6.6194 C.3       9 UNK        -0.1955 
     57 C          31.6620   -1.2667   -8.8526 C.2       9 UNK         0.5031 
     58 O          32.6804   -1.9488   -8.9690 O.2       9 UNK        -0.5390 
     59 N          31.5659    0.0086   -9.2616 N.am      10 UNK        -0.4204 
     60 CA         32.6431    0.8422   -9.8213 C.3       10 UNK         0.0237 
     61 CB         33.1418    0.2797  -11.1702 C.3       10 UNK        -0.1985 
     62 C          33.7985    1.1362   -8.8367 C.2       10 UNK         0.4970 
     63 O          34.8681    1.5636   -9.2751 O.2       10 UNK        -0.4914 
     64 N          33.5732    0.9159   -7.5341 N.am      11 UNK        -0.4285 
     65 CA         34.5177    1.2029   -6.4466 C.3       11 UNK         0.1007 
     66 C          34.6911    2.7204   -6.1518 C.2       11 UNK         0.5703 
     67 N          35.7179    3.0895   -5.3973 N.am      11 UNK        -0.7361 
     68 O          33.9103    3.5643   -6.5867 O.2       11 UNK        -0.4986 
     69 C69        34.1943    0.3686   -5.1763 C.3       12 UNK        -0.0947 
     70 S70        32.5075    0.5862   -4.5116 S.3       12 UNK        -0.2240 
     71 C71        32.6641   -0.3715   -2.9714 C.3       12 UNK         0.0194 
     72 H72        27.0688   -5.5333   -9.3276 H         1 UNK         0.0906 
     73 H73        28.5813   -4.6862   -9.0031 H         1 UNK         0.0906 
     74 H74        28.6036   -6.4011   -9.4126 H         1 UNK         0.0906 
     75 H75        28.8568   -4.3115   -6.8158 H         1 UNK         0.3140 
     76 H76        28.6317   -6.3714   -4.8352 H         1 UNK         0.1085 
     77 H77        30.2511   -4.3185   -4.9121 H         1 UNK         0.0836 
     78 H78        28.9332   -3.3803   -4.2635 H         1 UNK         0.0836 
     79 H79        27.9850   -3.7205   -1.8320 H         1 UNK         0.0731 
     80 H80        29.1473   -4.0694   -0.5757 H         1 UNK         0.0731 
     81 H81        31.4381   -2.7822   -2.7538 H         1 UNK         0.1312 
     82 H82        30.9275    1.3474   -1.7711 H         1 UNK         0.1406 
     83 H83        27.9207   -1.4950   -0.6495 H         1 UNK         0.1631 
     84 H84        29.0943    2.0653   -0.4041 H         1 UNK         0.0717 
     85 H85        28.2253    0.8550    0.5043 H         1 UNK         0.0717 
     86 H86        27.2179    2.9432   -3.3737 H         1 UNK         0.0934 
     87 H87        28.7444    2.2258   -2.9318 H         1 UNK         0.0934 
     88 H88        27.8589   -0.0389   -3.7392 H         1 UNK         0.0739 
     89 H89        25.7326   -0.2807   -4.1763 H         1 UNK         0.3093 
     90 H90        23.0974    1.8945   -4.8311 H         1 UNK         0.0818 
     91 H91        22.3625    0.4550   -6.7593 H         1 UNK         0.0819 
     92 H92        23.5507    1.6433   -7.2533 H         1 UNK         0.0819 
     93 H93        24.0371   -0.0307   -7.0301 H         1 UNK         0.0819 
     94 H94        23.3053   -0.9868   -4.8487 H         1 UNK         0.3041 
     95 H95        23.9081   -1.5602   -1.5421 H         1 UNK         0.0784 
     96 H96        21.5336   -0.9306   -1.0624 H         1 UNK         0.0793 
     97 H97        21.0077   -1.7422   -2.5303 H         1 UNK         0.0793 
     98 H98        21.7099   -2.6702   -1.2034 H         1 UNK         0.0793 
     99 H99        22.7237   -3.3124   -3.4176 H         1 UNK         0.3024 
    100 H100       24.2357   -4.9436   -4.3505 H         1 UNK         0.1171 
    101 H101       23.9521   -4.5538   -6.8342 H         1 UNK         0.0786 
    102 H102       24.2853   -2.8398   -6.5984 H         1 UNK         0.0786 
    103 H103       22.8489   -3.5683   -5.8950 H         1 UNK         0.0786 
    104 H104       26.4295   -3.9598   -6.0398 H         1 UNK         0.2977 
    105 H105       29.0366    2.8464   -4.7670 H         1 UNK         0.3127 
    106 H106       30.6559    1.7782   -6.7455 H         1 UNK         0.0770 
    107 H107       29.8939    4.7000   -6.2191 H         1 UNK         0.0814 
    108 H108       31.2643    4.1726   -7.1857 H         1 UNK         0.0814 
    109 H109       31.2229    3.8083   -5.4714 H         1 UNK         0.0814 
    110 H110       27.4254    3.1338   -7.1708 H         1 UNK         0.2983 
    111 H111       27.5559    3.5814   -9.9999 H         1 UNK         0.0947 
    112 H112       25.0510    3.6086   -9.8090 H         1 UNK         0.0806 
    113 H113       25.8131    4.6210   -8.5933 H         1 UNK         0.0806 
    114 H114       25.1752    3.0406   -8.1495 H         1 UNK         0.0806 
    115 H115       27.2641    0.6491   -8.1274 H         1 UNK         0.3000 
    116 H116       26.6576   -0.9571  -10.5909 H         1 UNK         0.0850 
    117 H117       26.0956   -2.7762   -8.9526 H         1 UNK         0.0810 
    118 H118       25.0424   -1.3838   -8.7842 H         1 UNK         0.0810 
    119 H119       26.3398   -1.6519   -7.6197 H         1 UNK         0.0810 
    120 H120       28.7668   -0.6770   -7.6981 H         1 UNK         0.3040 
    121 H121       30.3964   -2.9340   -8.4354 H         1 UNK         0.0766 
    122 H122       31.5595   -2.3597   -6.3153 H         1 UNK         0.0812 
    123 H123       29.8156   -2.2557   -6.0882 H         1 UNK         0.0812 
    124 H124       30.7557   -0.7945   -6.2759 H         1 UNK         0.0812 
    125 H125       30.6853    0.4980   -9.1344 H         1 UNK         0.3205 
    126 H126       32.1915    1.8123  -10.0304 H         1 UNK         0.0754 
    127 H127       33.8087    0.9858  -11.6666 H         1 UNK         0.0769 
    128 H128       32.3120    0.0887  -11.8507 H         1 UNK         0.0769 
    129 H129       33.6945   -0.6516  -11.0442 H         1 UNK         0.0769 
    130 H130       32.6670    0.5840   -7.2466 H         1 UNK         0.2981 
    131 H131       35.4950    0.8645   -6.7968 H         1 UNK         0.0541 
    132 H132       35.8448    4.0682   -5.1923 H         1 UNK         0.3459 
    133 H133       36.3692    2.4128   -5.0317 H         1 UNK         0.3459 
    134 H134       34.9138    0.5809   -4.3838 H         1 UNK         0.0612 
    135 H135       34.3195   -0.6904   -5.4076 H         1 UNK         0.0612 
    136 H136       33.2057   -1.2955   -3.1802 H         1 UNK         0.0624 
    137 H137       33.2747    0.1897   -2.2627 H         1 UNK         0.0624 
@<TRIPOS>BOND
     1    1    2 1    
     2    1   72 1    
     3    1   73 1    
     4    1   74 1    
     5    2    3 2    
     6    2    4 am   BACKBONE|DICT|INTERRES
     7    4    5 1    
     8    4   75 1    
     9    5    6 1    
    10    5   35 1    
    11    5   76 1    
    12    6    7 1    
    13    6   77 1    
    14    6   78 1    
    15    7    8 1    
    16    8    9 1    
    17    8   79 1    
    18    8   80 1    
    19    9   10 ar   
    20    9   14 ar   
    21   10   11 ar   
    22   10   81 1    
    23   11   12 ar   
    24   11   71 1    
    25   12   13 ar   
    26   12   82 1    
    27   13   14 ar   
    28   13   15 1    
    29   14   83 1    
    30   15   16 1    
    31   15   84 1    
    32   15   85 1    
    33   16   17 1    
    34   17   18 1    
    35   17   86 1    
    36   17   87 1    
    37   18   19 1    
    38   18   37 1    
    39   18   88 1    
    40   19   20 am   BACKBONE|DICT|INTERRES
    41   19   89 1    
    42   20   21 2    
    43   20   22 1    
    44   22   23 1    
    45   22   24 1    
    46   22   90 1    
    47   23   91 1    
    48   23   92 1    
    49   23   93 1    
    50   24   25 am   BACKBONE|DICT|INTERRES
    51   24   94 1    
    52   25   26 2    
    53   25   27 1    
    54   27   28 1    
    55   27   29 1    
    56   27   95 1    
    57   28   96 1    
    58   28   97 1    
    59   28   98 1    
    60   29   30 am   BACKBONE|DICT|INTERRES
    61   29   99 1    
    62   30   31 2    
    63   30   32 1    
    64   32   33 1    
    65   32   34 1    
    66   32  100 1    
    67   33  101 1    
    68   33  102 1    
    69   33  103 1    
    70   34   35 am   BACKBONE|DICT|INTERRES
    71   34  104 1    
    72   35   36 2    
    73   37   38 2    
    74   37   39 am   BACKBONE|DICT|INTERRES
    75   39   40 1    
    76   39  105 1    
    77   40   41 1    
    78   40   42 1    
    79   40  106 1    
    80   41  107 1    
    81   41  108 1    
    82   41  109 1    
    83   42   43 2    
    84   42   44 am   BACKBONE|DICT|INTERRES
    85   44   45 1    
    86   44  110 1    
    87   45   46 1    
    88   45   47 1    
    89   45  111 1    
    90   46  112 1    
    91   46  113 1    
    92   46  114 1    
    93   47   48 2    
    94   47   49 am   BACKBONE|DICT|INTERRES
    95   49   50 1    
    96   49  115 1    
    97   50   51 1    
    98   50   52 1    
    99   50  116 1    
   100   51  117 1    
   101   51  118 1    
   102   51  119 1    
   103   52   53 2    
   104   52   54 am   BACKBONE|DICT|INTERRES
   105   54   55 1    
   106   54  120 1    
   107   55   56 1    
   108   55   57 1    
   109   55  121 1    
   110   56  122 1    
   111   56  123 1    
   112   56  124 1    
   113   57   58 2    
   114   57   59 am   BACKBONE|DICT|INTERRES
   115   59   60 1    
   116   59  125 1    
   117   60   61 1    
   118   60   62 1    
   119   60  126 1    
   120   61  127 1    
   121   61  128 1    
   122   61  129 1    
   123   62   63 2    
   124   62   64 am   BACKBONE|DICT|INTERRES
   125   64   65 1    
   126   64  130 1    
   127   65   66 1    
   128   65   69 1    
   129   65  131 1    
   130   66   67 am   BACKBONE|DICT|INTERRES
   131   66   68 2    
   132   67  132 1    
   133   67  133 1    
   134   69   70 1    
   135   69  134 1    
   136   69  135 1    
   137   70   71 1    
   138   71  136 1    
   139   71  137 1    
@<TRIPOS>SUBSTRUCTURE
     1 UNK         1 GROUP             0       ****    0 ROOT    
