@<TRIPOS>MOLECULE
3R137
137   139    1
SMALL
USER_CHARGES


@<TRIPOS>ATOM
      1 CA         26.6078   -4.3978    2.4064 C.3       0 UNK        -0.2020 
      2 C          26.8737   -3.5370    1.1811 C.2       0 UNK         0.4855 
      3 O          27.2587   -2.3746    1.3179 O.2       0 UNK        -0.5197 
      4 N          26.6699   -4.0918   -0.0203 N.am      1 UNK        -0.4892 
      5 CA         26.8645   -3.4146   -1.3066 C.3       1 UNK         0.0835 
      6 C6         27.1409   -4.4189   -2.4577 C.3       12 UNK        -0.0855 
      7 S7         28.6039   -5.4700   -2.1558 S.3       12 UNK        -0.2931 
      8 C8         29.5283   -5.3067   -3.7281 C.3       12 UNK         0.0378 
      9 C9         30.1924   -3.9511   -3.9890 C.ar      12 UNK        -0.0802 
     10 C10        30.7268   -3.7049   -5.2593 C.ar      12 UNK        -0.0944 
     11 C11        31.3600   -2.4921   -5.5494 C.ar      12 UNK        -0.0787 
     12 C12        31.4486   -1.5092   -4.5619 C.ar      12 UNK        -0.0862 
     13 C13        30.9027   -1.7295   -3.2954 C.ar      12 UNK        -0.0733 
     14 C14        30.3000   -2.9565   -3.0079 C.ar      12 UNK        -0.0832 
     15 C15        30.9344   -0.6297   -2.2453 C.3       12 UNK         0.0240 
     16 S16        29.9173    0.8017   -2.7340 S.3       12 UNK        -0.2522 
     17 C17        28.2746    0.0523   -3.0244 C.3       12 UNK        -0.0967 
     18 CA         27.9456   -0.1670   -4.5265 C.3       5 UNK         0.0660 
     19 N          26.7524   -0.9995   -4.7264 N.am      5 UNK        -0.4015 
     20 C          26.3922   -1.5309   -5.9064 C.2       4 UNK         0.4946 
     21 O          27.0720   -1.4486   -6.9271 O.2       4 UNK        -0.5353 
     22 CA         25.0176   -2.2139   -5.9958 C.3       4 UNK         0.0277 
     23 CB         25.1212   -3.7289   -5.7642 C.3       4 UNK        -0.1981 
     24 N          24.0372   -1.6201   -5.0844 N.am      4 UNK        -0.4209 
     25 C          23.4628   -0.4271   -5.3022 C.2       3 UNK         0.4942 
     26 O          23.6694    0.2503   -6.3080 O.2       3 UNK        -0.5208 
     27 CA         22.5465    0.1374   -4.2027 C.3       3 UNK         0.0250 
     28 CB         21.0981   -0.3284   -4.4177 C.3       3 UNK        -0.1990 
     29 N          22.9743   -0.2036   -2.8436 N.am      3 UNK        -0.4232 
     30 C          24.1594    0.1172   -2.3061 C.2       2 UNK         0.4993 
     31 O          25.0249    0.7558   -2.9074 O.2       2 UNK        -0.5286 
     32 CA         24.4594   -0.4002   -0.8847 C.3       2 UNK         0.0209 
     33 CB         23.2247   -0.9714   -0.1506 C.3       2 UNK        -0.1931 
     34 N          25.5471   -1.3889   -0.8621 N.am      2 UNK        -0.4546 
     35 C          25.6586   -2.4978   -1.6092 C.2       1 UNK         0.5154 
     36 O          24.8505   -2.8139   -2.4845 O.2       1 UNK        -0.5181 
     37 C          27.8139    1.1631   -5.2940 C.2       5 UNK         0.5014 
     38 O          28.7694    1.5828   -5.9447 O.2       5 UNK        -0.5248 
     39 N          26.6237    1.7791   -5.2367 N.am      6 UNK        -0.4434 
     40 CA         26.2851    2.9794   -6.0022 C.3       6 UNK         0.0363 
     41 CB         24.9404    3.5422   -5.5146 C.3       6 UNK        -0.1936 
     42 C          26.2631    2.7325   -7.5222 C.2       6 UNK         0.5081 
     43 O          26.8065    3.5444   -8.2712 O.2       6 UNK        -0.5248 
     44 N          25.6408    1.6259   -7.9532 N.am      7 UNK        -0.4718 
     45 CA         25.4977    1.2578   -9.3641 C.3       7 UNK         0.0273 
     46 CB         24.4508    0.1420   -9.5083 C.3       7 UNK        -0.1935 
     47 C          26.8192    0.8451  -10.0319 C.2       7 UNK         0.5018 
     48 O          27.1064    1.3164  -11.1327 O.2       7 UNK        -0.5186 
     49 N          27.5963   -0.0235   -9.3705 N.am      8 UNK        -0.4240 
     50 CA         28.8368   -0.5979   -9.9019 C.3       8 UNK         0.0235 
     51 CB         28.8884   -2.0973   -9.5528 C.3       8 UNK        -0.2000 
     52 C          30.0950    0.1387   -9.4106 C.2       8 UNK         0.4941 
     53 O          31.1759   -0.4498   -9.4460 O.2       8 UNK        -0.5273 
     54 N          29.9527    1.4043   -8.9839 N.am      9 UNK        -0.4262 
     55 CA         30.9700    2.2560   -8.3438 C.3       9 UNK         0.0264 
     56 CB         30.4026    3.6756   -8.1800 C.3       9 UNK        -0.1955 
     57 C          32.3501    2.3196   -9.0257 C.2       9 UNK         0.5031 
     58 O          33.3468    2.5576   -8.3408 O.2       9 UNK        -0.5390 
     59 N          32.3982    2.0620  -10.3401 N.am      10 UNK        -0.4204 
     60 CA         33.6148    1.8941  -11.1391 C.3       10 UNK         0.0237 
     61 CB         33.2208    1.6503  -12.6051 C.3       10 UNK        -0.1985 
     62 C          34.5597    0.7787  -10.6435 C.2       10 UNK         0.4970 
     63 O          35.7518    0.8454  -10.9474 O.2       10 UNK        -0.4914 
     64 N          34.0414   -0.2033   -9.8870 N.am      11 UNK        -0.4285 
     65 CA         34.8471   -1.2184   -9.1866 C.3       11 UNK         0.1007 
     66 C          35.7282   -0.6536   -8.0275 C.2       11 UNK         0.5703 
     67 N          35.4780    0.5494   -7.5190 N.am      11 UNK        -0.7361 
     68 O          36.6749   -1.3117   -7.6018 O.2       11 UNK        -0.4986 
     69 C69        34.0035   -2.4910   -8.8360 C.3       12 UNK        -0.0947 
     70 S70        33.6307   -2.8449   -7.0765 S.3       12 UNK        -0.2240 
     71 C71        31.9298   -2.2300   -6.9335 C.3       12 UNK         0.0194 
     72 H72        27.5131   -4.4847    3.0066 H         1 UNK         0.0906 
     73 H73        25.8324   -3.9434    3.0226 H         1 UNK         0.0906 
     74 H74        26.2822   -5.4023    2.1367 H         1 UNK         0.0906 
     75 H75        26.3480   -5.0479   -0.0790 H         1 UNK         0.3140 
     76 H76        27.7404   -2.7706   -1.2191 H         1 UNK         0.1085 
     77 H77        27.2908   -3.8752   -3.3920 H         1 UNK         0.0836 
     78 H78        26.2820   -5.0739   -2.6170 H         1 UNK         0.0836 
     79 H79        28.8529   -5.5439   -4.5518 H         1 UNK         0.0731 
     80 H80        30.3060   -6.0715   -3.7405 H         1 UNK         0.0731 
     81 H81        30.6570   -4.4636   -6.0272 H         1 UNK         0.1312 
     82 H82        31.9187   -0.5608   -4.7851 H         1 UNK         0.1406 
     83 H83        29.9113   -3.1239   -2.0151 H         1 UNK         0.1631 
     84 H84        31.9641   -0.3006   -2.0987 H         1 UNK         0.0717 
     85 H85        30.5880   -0.9979   -1.2783 H         1 UNK         0.0717 
     86 H86        28.2310   -0.8960   -2.4928 H         1 UNK         0.0934 
     87 H87        27.5310    0.6920   -2.5487 H         1 UNK         0.0934 
     88 H88        28.7781   -0.7110   -4.9762 H         1 UNK         0.0739 
     89 H89        26.0911   -1.0351   -3.9636 H         1 UNK         0.3093 
     90 H90        24.6577   -2.0727   -7.0167 H         1 UNK         0.0818 
     91 H91        25.3999   -3.9712   -4.7416 H         1 UNK         0.0819 
     92 H92        24.1727   -4.2234   -5.9738 H         1 UNK         0.0819 
     93 H93        25.8697   -4.1740   -6.4213 H         1 UNK         0.0819 
     94 H94        23.8797   -2.0982   -4.2030 H         1 UNK         0.3041 
     95 H95        22.5711    1.2259   -4.2879 H         1 UNK         0.0784 
     96 H96        20.7489   -0.0657   -5.4175 H         1 UNK         0.0793 
     97 H97        21.0007   -1.4097   -4.3121 H         1 UNK         0.0793 
     98 H98        20.4193    0.1422   -3.7062 H         1 UNK         0.0793 
     99 H99        22.3346   -0.7549   -2.2901 H         1 UNK         0.3024 
    100 H100       24.8094    0.4664   -0.3212 H         1 UNK         0.1171 
    101 H101       23.4714   -1.2250    0.8807 H         1 UNK         0.0786 
    102 H102       22.4130   -0.2434   -0.1101 H         1 UNK         0.0786 
    103 H103       22.8433   -1.8770   -0.6242 H         1 UNK         0.0786 
    104 H104       26.2437   -1.2595   -0.1350 H         1 UNK         0.2977 
    105 H105       25.9076    1.3972   -4.6264 H         1 UNK         0.3127 
    106 H106       27.0558    3.7269   -5.8014 H         1 UNK         0.0770 
    107 H107       24.1221    2.8414   -5.6802 H         1 UNK         0.0814 
    108 H108       24.6910    4.4637   -6.0424 H         1 UNK         0.0814 
    109 H109       24.9705    3.7757   -4.4502 H         1 UNK         0.0814 
    110 H110       25.1527    1.0437   -7.2775 H         1 UNK         0.2983 
    111 H111       25.1237    2.1350   -9.8971 H         1 UNK         0.0947 
    112 H112       24.2997   -0.1189  -10.5566 H         1 UNK         0.0806 
    113 H113       23.4844    0.4501   -9.1089 H         1 UNK         0.0806 
    114 H114       24.7547   -0.7658   -8.9873 H         1 UNK         0.0806 
    115 H115       27.3058   -0.3662   -8.4558 H         1 UNK         0.3000 
    116 H116       28.8393   -0.5205  -10.9911 H         1 UNK         0.0850 
    117 H117       29.7296   -2.5871  -10.0449 H         1 UNK         0.0810 
    118 H118       27.9827   -2.6124   -9.8727 H         1 UNK         0.0810 
    119 H119       29.0036   -2.2567   -8.4805 H         1 UNK         0.0810 
    120 H120       29.0156    1.7821   -8.9919 H         1 UNK         0.3040 
    121 H121       31.1362    1.8401   -7.3482 H         1 UNK         0.0766 
    122 H122       29.5073    3.6754   -7.5584 H         1 UNK         0.0812 
    123 H123       30.1432    4.1200   -9.1416 H         1 UNK         0.0812 
    124 H124       31.1253    4.3352   -7.6975 H         1 UNK         0.0812 
    125 H125       31.5244    1.8576  -10.8023 H         1 UNK         0.3205 
    126 H126       34.1702    2.8325  -11.0833 H         1 UNK         0.0754 
    127 H127       34.1050    1.5518  -13.2367 H         1 UNK         0.0769 
    128 H128       32.6331    2.4783  -13.0024 H         1 UNK         0.0769 
    129 H129       32.6360    0.7363  -12.7181 H         1 UNK         0.0769 
    130 H130       33.0423   -0.2102   -9.6941 H         1 UNK         0.2981 
    131 H131       35.5755   -1.5536   -9.9282 H         1 UNK         0.0541 
    132 H132       34.7172    1.1208   -7.8696 H         1 UNK         0.3459 
    133 H133       36.0647    0.8994   -6.7790 H         1 UNK         0.3459 
    134 H134       33.0726   -2.5092   -9.4051 H         1 UNK         0.0612 
    135 H135       34.5512   -3.3654   -9.1906 H         1 UNK         0.0612 
    136 H136       31.3036   -2.6989   -7.6934 H         1 UNK         0.0624 
    137 H137       31.9281   -1.1584   -7.1336 H         1 UNK         0.0624 
@<TRIPOS>BOND
     1    1    2 1    
     2    1   72 1    
     3    1   73 1    
     4    1   74 1    
     5    2    3 2    
     6    2    4 am   BACKBONE|DICT|INTERRES
     7    4    5 1    
     8    4   75 1    
     9    5    6 1    
    10    5   35 1    
    11    5   76 1    
    12    6    7 1    
    13    6   77 1    
    14    6   78 1    
    15    7    8 1    
    16    8    9 1    
    17    8   79 1    
    18    8   80 1    
    19    9   10 ar   
    20    9   14 ar   
    21   10   11 ar   
    22   10   81 1    
    23   11   12 ar   
    24   11   71 1    
    25   12   13 ar   
    26   12   82 1    
    27   13   14 ar   
    28   13   15 1    
    29   14   83 1    
    30   15   16 1    
    31   15   84 1    
    32   15   85 1    
    33   16   17 1    
    34   17   18 1    
    35   17   86 1    
    36   17   87 1    
    37   18   19 1    
    38   18   37 1    
    39   18   88 1    
    40   19   20 am   BACKBONE|DICT|INTERRES
    41   19   89 1    
    42   20   21 2    
    43   20   22 1    
    44   22   23 1    
    45   22   24 1    
    46   22   90 1    
    47   23   91 1    
    48   23   92 1    
    49   23   93 1    
    50   24   25 am   BACKBONE|DICT|INTERRES
    51   24   94 1    
    52   25   26 2    
    53   25   27 1    
    54   27   28 1    
    55   27   29 1    
    56   27   95 1    
    57   28   96 1    
    58   28   97 1    
    59   28   98 1    
    60   29   30 am   BACKBONE|DICT|INTERRES
    61   29   99 1    
    62   30   31 2    
    63   30   32 1    
    64   32   33 1    
    65   32   34 1    
    66   32  100 1    
    67   33  101 1    
    68   33  102 1    
    69   33  103 1    
    70   34   35 am   BACKBONE|DICT|INTERRES
    71   34  104 1    
    72   35   36 2    
    73   37   38 2    
    74   37   39 am   BACKBONE|DICT|INTERRES
    75   39   40 1    
    76   39  105 1    
    77   40   41 1    
    78   40   42 1    
    79   40  106 1    
    80   41  107 1    
    81   41  108 1    
    82   41  109 1    
    83   42   43 2    
    84   42   44 am   BACKBONE|DICT|INTERRES
    85   44   45 1    
    86   44  110 1    
    87   45   46 1    
    88   45   47 1    
    89   45  111 1    
    90   46  112 1    
    91   46  113 1    
    92   46  114 1    
    93   47   48 2    
    94   47   49 am   BACKBONE|DICT|INTERRES
    95   49   50 1    
    96   49  115 1    
    97   50   51 1    
    98   50   52 1    
    99   50  116 1    
   100   51  117 1    
   101   51  118 1    
   102   51  119 1    
   103   52   53 2    
   104   52   54 am   BACKBONE|DICT|INTERRES
   105   54   55 1    
   106   54  120 1    
   107   55   56 1    
   108   55   57 1    
   109   55  121 1    
   110   56  122 1    
   111   56  123 1    
   112   56  124 1    
   113   57   58 2    
   114   57   59 am   BACKBONE|DICT|INTERRES
   115   59   60 1    
   116   59  125 1    
   117   60   61 1    
   118   60   62 1    
   119   60  126 1    
   120   61  127 1    
   121   61  128 1    
   122   61  129 1    
   123   62   63 2    
   124   62   64 am   BACKBONE|DICT|INTERRES
   125   64   65 1    
   126   64  130 1    
   127   65   66 1    
   128   65   69 1    
   129   65  131 1    
   130   66   67 am   BACKBONE|DICT|INTERRES
   131   66   68 2    
   132   67  132 1    
   133   67  133 1    
   134   69   70 1    
   135   69  134 1    
   136   69  135 1    
   137   70   71 1    
   138   71  136 1    
   139   71  137 1    
@<TRIPOS>SUBSTRUCTURE
     1 UNK         1 GROUP             0       ****    0 ROOT    
