@<TRIPOS>MOLECULE
3R137
137   139    1
SMALL
USER_CHARGES


@<TRIPOS>ATOM
      1 CA         28.4231    1.1132   -0.7185 C.3       0 UNK        -0.2020 
      2 C          28.2210   -0.2914   -1.2636 C.2       0 UNK         0.4855 
      3 O          28.0089   -0.4562   -2.4645 O.2       0 UNK        -0.5197 
      4 N          28.2780   -1.3096   -0.3952 N.am      1 UNK        -0.4892 
      5 CA         28.1134   -2.7221   -0.7550 C.3       1 UNK         0.0835 
      6 C6         28.8851   -3.6798    0.1903 C.3       12 UNK        -0.0855 
      7 S7         30.6733   -3.3101    0.3145 S.3       12 UNK        -0.2931 
      8 C8         31.3864   -4.1962   -1.1138 C.3       12 UNK         0.0378 
      9 C9         31.8294   -3.2210   -2.1969 C.ar      12 UNK        -0.0802 
     10 C10        33.1320   -2.7096   -2.2045 C.ar      12 UNK        -0.0944 
     11 C11        33.5333   -1.7841   -3.1756 C.ar      12 UNK        -0.0787 
     12 C12        32.5967   -1.3410   -4.1178 C.ar      12 UNK        -0.0862 
     13 C13        31.3055   -1.8711   -4.1456 C.ar      12 UNK        -0.0733 
     14 C14        30.9359   -2.8215   -3.1922 C.ar      12 UNK        -0.0832 
     15 C15        30.3053   -1.3890   -5.1852 C.3       12 UNK         0.0240 
     16 S16        29.4979   -2.7647   -6.0708 S.3       12 UNK        -0.2522 
     17 C17        27.7454   -2.4697   -5.6632 C.3       12 UNK        -0.0967 
     18 CA         27.0561   -1.5776   -6.7240 C.3       5 UNK         0.0660 
     19 N          25.6105   -1.7968   -6.7777 N.am      5 UNK        -0.4015 
     20 C          24.8294   -1.4275   -7.8023 C.2       4 UNK         0.4946 
     21 O          25.2545   -0.8982   -8.8294 O.2       4 UNK        -0.5353 
     22 CA         23.3171   -1.6613   -7.6434 C.3       4 UNK         0.0277 
     23 CB         22.9428   -3.0881   -8.0754 C.3       4 UNK        -0.1981 
     24 N          22.8433   -1.4197   -6.2775 N.am      4 UNK        -0.4209 
     25 C          22.8169   -0.2127   -5.6946 C.2       3 UNK         0.4942 
     26 O          23.1502    0.8271   -6.2618 O.2       3 UNK        -0.5208 
     27 CA         22.3957   -0.1625   -4.2146 C.3       3 UNK         0.0250 
     28 CB         20.8643   -0.1146   -4.0913 C.3       3 UNK        -0.1990 
     29 N          22.9240   -1.2608   -3.3924 N.am      3 UNK        -0.4232 
     30 C          24.2230   -1.5634   -3.2633 C.2       2 UNK         0.4993 
     31 O          25.1209   -1.0053   -3.8982 O.2       2 UNK        -0.5286 
     32 CA         24.5863   -2.7028   -2.3064 C.3       2 UNK         0.0209 
     33 CB         24.3656   -4.0713   -2.9782 C.3       2 UNK        -0.1931 
     34 N          25.9911   -2.5428   -1.9440 N.am      2 UNK        -0.4546 
     35 C          26.6194   -3.0804   -0.8950 C.2       1 UNK         0.5154 
     36 O          26.0677   -3.8040   -0.0635 O.2       1 UNK        -0.5181 
     37 C          27.3788   -0.0845   -6.5256 C.2       5 UNK         0.5014 
     38 O          28.2685    0.4359   -7.1980 O.2       5 UNK        -0.5248 
     39 N          26.6274    0.5894   -5.6442 N.am      6 UNK        -0.4434 
     40 CA         26.7090    2.0321   -5.4111 C.3       6 UNK         0.0363 
     41 CB         25.8071    2.4111   -4.2266 C.3       6 UNK        -0.1936 
     42 C          26.3593    2.8603   -6.6612 C.2       6 UNK         0.5081 
     43 O          26.9976    3.8852   -6.8997 O.2       6 UNK        -0.5248 
     44 N          25.3819    2.3899   -7.4506 N.am      7 UNK        -0.4718 
     45 CA         25.0220    2.9566   -8.7524 C.3       7 UNK         0.0273 
     46 CB         23.6759    2.3785   -9.2171 C.3       7 UNK        -0.1935 
     47 C          26.1093    2.7390   -9.8203 C.2       7 UNK         0.5018 
     48 O          26.3718    3.6564  -10.5991 O.2       7 UNK        -0.5186 
     49 N          26.7244    1.5457   -9.8383 N.am      8 UNK        -0.4240 
     50 CA         27.8492    1.2059  -10.7183 C.3       8 UNK         0.0235 
     51 CB         28.1054   -0.3096  -10.6776 C.3       8 UNK        -0.2000 
     52 C          29.1319    1.9846  -10.3736 C.2       8 UNK         0.4941 
     53 O          29.8333    2.4224  -11.2863 O.2       8 UNK        -0.5273 
     54 N          29.3907    2.1547   -9.0686 N.am      9 UNK        -0.4262 
     55 CA         30.4756    2.9286   -8.4570 C.3       9 UNK         0.0264 
     56 CB         30.3045    4.4339   -8.7537 C.3       9 UNK        -0.1955 
     57 C          31.8822    2.3991   -8.7994 C.2       9 UNK         0.5031 
     58 O          32.8002    3.1918   -9.0233 O.2       9 UNK        -0.5390 
     59 N          32.0363    1.0701   -8.8129 N.am      10 UNK        -0.4204 
     60 CA         33.3037    0.3726   -9.0154 C.3       10 UNK         0.0237 
     61 CB         33.5099    0.0835  -10.5128 C.3       10 UNK        -0.1985 
     62 C          33.2769   -0.9228   -8.2000 C.2       10 UNK         0.4970 
     63 O          32.2244   -1.5579   -8.1201 O.2       10 UNK        -0.4914 
     64 N          34.4259   -1.2889   -7.6210 N.am      11 UNK        -0.4285 
     65 CA         34.5901   -2.4771   -6.7634 C.3       11 UNK         0.1007 
     66 C          34.7529   -3.8179   -7.5378 C.2       11 UNK         0.5703 
     67 N          34.8539   -3.8167   -8.8621 N.am      11 UNK        -0.7361 
     68 O          34.7821   -4.8828   -6.9254 O.2       11 UNK        -0.4986 
     69 C69        35.7250   -2.2896   -5.7151 C.3       12 UNK        -0.0947 
     70 S70        35.6226   -0.7220   -4.7786 S.3       12 UNK        -0.2240 
     71 C71        34.9697   -1.2589   -3.1566 C.3       12 UNK         0.0194 
     72 H72        27.5429    1.7227   -0.9208 H         1 UNK         0.0906 
     73 H73        29.2798    1.5807   -1.2025 H         1 UNK         0.0906 
     74 H74        28.5982    1.1127    0.3570 H         1 UNK         0.0906 
     75 H75        28.4465   -1.1258    0.5836 H         1 UNK         0.3140 
     76 H76        28.5295   -2.8664   -1.7473 H         1 UNK         0.1085 
     77 H77        28.7592   -4.7169   -0.1264 H         1 UNK         0.0836 
     78 H78        28.4690   -3.6258    1.1980 H         1 UNK         0.0836 
     79 H79        32.2413   -4.7815   -0.7717 H         1 UNK         0.0731 
     80 H80        30.6725   -4.9150   -1.5185 H         1 UNK         0.0731 
     81 H81        33.8338   -3.0292   -1.4460 H         1 UNK         0.1312 
     82 H82        32.8750   -0.5964   -4.8502 H         1 UNK         0.1406 
     83 H83        29.9457   -3.2454   -3.2342 H         1 UNK         0.1631 
     84 H84        30.7905   -0.7505   -5.9245 H         1 UNK         0.0717 
     85 H85        29.5689   -0.7606   -4.6843 H         1 UNK         0.0717 
     86 H86        27.2672   -3.4501   -5.6368 H         1 UNK         0.0934 
     87 H87        27.6406   -2.0665   -4.6540 H         1 UNK         0.0934 
     88 H88        27.4456   -1.8623   -7.7043 H         1 UNK         0.0739 
     89 H89        25.1755   -2.1423   -5.9347 H         1 UNK         0.3093 
     90 H90        22.8053   -0.9599   -8.3063 H         1 UNK         0.0818 
     91 H91        23.2705   -3.2833   -9.0976 H         1 UNK         0.0819 
     92 H92        23.4045   -3.8416   -7.4360 H         1 UNK         0.0819 
     93 H93        21.8636   -3.2401   -8.0493 H         1 UNK         0.0819 
     94 H94        22.5435   -2.2211   -5.7414 H         1 UNK         0.3041 
     95 H95        22.7953    0.7656   -3.8007 H         1 UNK         0.0784 
     96 H96        20.4509    0.7053   -4.6807 H         1 UNK         0.0793 
     97 H97        20.3998   -1.0362   -4.4442 H         1 UNK         0.0793 
     98 H98        20.5535    0.0447   -3.0585 H         1 UNK         0.0793 
     99 H99        22.2478   -1.7817   -2.8518 H         1 UNK         0.3024 
    100 H100       23.9723   -2.6198   -1.4069 H         1 UNK         0.1171 
    101 H101       24.9789   -4.1841   -3.8731 H         1 UNK         0.0786 
    102 H102       24.6106   -4.8905   -2.3019 H         1 UNK         0.0786 
    103 H103       23.3243   -4.2027   -3.2748 H         1 UNK         0.0786 
    104 H104       26.4913   -1.8619   -2.5132 H         1 UNK         0.2977 
    105 H105       25.9669    0.0675   -5.0685 H         1 UNK         0.3127 
    106 H106       27.7419    2.2608   -5.1402 H         1 UNK         0.0770 
    107 H107       25.8934    3.4734   -3.9951 H         1 UNK         0.0814 
    108 H108       24.7576    2.2060   -4.4385 H         1 UNK         0.0814 
    109 H109       26.0819    1.8570   -3.3284 H         1 UNK         0.0814 
    110 H110       24.8422    1.5910   -7.1327 H         1 UNK         0.2983 
    111 H111       24.8998    4.0344   -8.6243 H         1 UNK         0.0947 
    112 H112       23.7221    1.2971   -9.3466 H         1 UNK         0.0806 
    113 H113       23.3752    2.8094  -10.1730 H         1 UNK         0.0806 
    114 H114       22.8836    2.5947   -8.5001 H         1 UNK         0.0806 
    115 H115       26.3995    0.8211   -9.2069 H         1 UNK         0.3000 
    116 H116       27.5649    1.4732  -11.7383 H         1 UNK         0.0850 
    117 H117       28.9078   -0.5871  -11.3625 H         1 UNK         0.0810 
    118 H118       27.2178   -0.8697  -10.9727 H         1 UNK         0.0810 
    119 H119       28.3967   -0.6462   -9.6826 H         1 UNK         0.0810 
    120 H120       28.7933    1.6593   -8.4061 H         1 UNK         0.3040 
    121 H121       30.3606    2.7957   -7.3802 H         1 UNK         0.0766 
    122 H122       31.0237    5.0291   -8.1899 H         1 UNK         0.0812 
    123 H123       29.3089    4.7800   -8.4746 H         1 UNK         0.0812 
    124 H124       30.4535    4.6575   -9.8105 H         1 UNK         0.0812 
    125 H125       31.2515    0.4717   -8.5849 H         1 UNK         0.3205 
    126 H126       34.1249    0.9943   -8.6510 H         1 UNK         0.0754 
    127 H127       34.4530   -0.4360  -10.6866 H         1 UNK         0.0769 
    128 H128       33.5365    1.0063  -11.0931 H         1 UNK         0.0769 
    129 H129       32.7107   -0.5404  -10.9155 H         1 UNK         0.0769 
    130 H130       35.2501   -0.7193   -7.7446 H         1 UNK         0.2981 
    131 H131       33.6619   -2.6045   -6.2070 H         1 UNK         0.0541 
    132 H132       34.9549   -4.6926   -9.3502 H         1 UNK         0.3459 
    133 H133       34.8247   -2.9515   -9.3762 H         1 UNK         0.3459 
    134 H134       36.6974   -2.3094   -6.2102 H         1 UNK         0.0612 
    135 H135       35.7305   -3.1210   -5.0077 H         1 UNK         0.0612 
    136 H136       35.0130   -0.4102   -2.4730 H         1 UNK         0.0624 
    137 H137       35.6415   -2.0170   -2.7505 H         1 UNK         0.0624 
@<TRIPOS>BOND
     1    1    2 1    
     2    1   72 1    
     3    1   73 1    
     4    1   74 1    
     5    2    3 2    
     6    2    4 am   BACKBONE|DICT|INTERRES
     7    4    5 1    
     8    4   75 1    
     9    5    6 1    
    10    5   35 1    
    11    5   76 1    
    12    6    7 1    
    13    6   77 1    
    14    6   78 1    
    15    7    8 1    
    16    8    9 1    
    17    8   79 1    
    18    8   80 1    
    19    9   10 ar   
    20    9   14 ar   
    21   10   11 ar   
    22   10   81 1    
    23   11   12 ar   
    24   11   71 1    
    25   12   13 ar   
    26   12   82 1    
    27   13   14 ar   
    28   13   15 1    
    29   14   83 1    
    30   15   16 1    
    31   15   84 1    
    32   15   85 1    
    33   16   17 1    
    34   17   18 1    
    35   17   86 1    
    36   17   87 1    
    37   18   19 1    
    38   18   37 1    
    39   18   88 1    
    40   19   20 am   BACKBONE|DICT|INTERRES
    41   19   89 1    
    42   20   21 2    
    43   20   22 1    
    44   22   23 1    
    45   22   24 1    
    46   22   90 1    
    47   23   91 1    
    48   23   92 1    
    49   23   93 1    
    50   24   25 am   BACKBONE|DICT|INTERRES
    51   24   94 1    
    52   25   26 2    
    53   25   27 1    
    54   27   28 1    
    55   27   29 1    
    56   27   95 1    
    57   28   96 1    
    58   28   97 1    
    59   28   98 1    
    60   29   30 am   BACKBONE|DICT|INTERRES
    61   29   99 1    
    62   30   31 2    
    63   30   32 1    
    64   32   33 1    
    65   32   34 1    
    66   32  100 1    
    67   33  101 1    
    68   33  102 1    
    69   33  103 1    
    70   34   35 am   BACKBONE|DICT|INTERRES
    71   34  104 1    
    72   35   36 2    
    73   37   38 2    
    74   37   39 am   BACKBONE|DICT|INTERRES
    75   39   40 1    
    76   39  105 1    
    77   40   41 1    
    78   40   42 1    
    79   40  106 1    
    80   41  107 1    
    81   41  108 1    
    82   41  109 1    
    83   42   43 2    
    84   42   44 am   BACKBONE|DICT|INTERRES
    85   44   45 1    
    86   44  110 1    
    87   45   46 1    
    88   45   47 1    
    89   45  111 1    
    90   46  112 1    
    91   46  113 1    
    92   46  114 1    
    93   47   48 2    
    94   47   49 am   BACKBONE|DICT|INTERRES
    95   49   50 1    
    96   49  115 1    
    97   50   51 1    
    98   50   52 1    
    99   50  116 1    
   100   51  117 1    
   101   51  118 1    
   102   51  119 1    
   103   52   53 2    
   104   52   54 am   BACKBONE|DICT|INTERRES
   105   54   55 1    
   106   54  120 1    
   107   55   56 1    
   108   55   57 1    
   109   55  121 1    
   110   56  122 1    
   111   56  123 1    
   112   56  124 1    
   113   57   58 2    
   114   57   59 am   BACKBONE|DICT|INTERRES
   115   59   60 1    
   116   59  125 1    
   117   60   61 1    
   118   60   62 1    
   119   60  126 1    
   120   61  127 1    
   121   61  128 1    
   122   61  129 1    
   123   62   63 2    
   124   62   64 am   BACKBONE|DICT|INTERRES
   125   64   65 1    
   126   64  130 1    
   127   65   66 1    
   128   65   69 1    
   129   65  131 1    
   130   66   67 am   BACKBONE|DICT|INTERRES
   131   66   68 2    
   132   67  132 1    
   133   67  133 1    
   134   69   70 1    
   135   69  134 1    
   136   69  135 1    
   137   70   71 1    
   138   71  136 1    
   139   71  137 1    
@<TRIPOS>SUBSTRUCTURE
     1 UNK         1 GROUP             0       ****    0 ROOT    
