@<TRIPOS>MOLECULE
3R137
137   139    1
SMALL
USER_CHARGES


@<TRIPOS>ATOM
      1 CA         23.8573   -6.9305   -1.0239 C.3       0 UNK        -0.2020 
      2 C          24.3947   -5.6966   -0.3149 C.2       0 UNK         0.4855 
      3 O          23.7014   -5.1217    0.5245 O.2       0 UNK        -0.5197 
      4 N          25.6265   -5.2872   -0.6436 N.am      1 UNK        -0.4892 
      5 CA         26.2939   -4.0961   -0.1014 C.3       1 UNK         0.0835 
      6 C6         27.8268   -4.1371   -0.3302 C.3       12 UNK        -0.0855 
      7 S7         28.3189   -4.4989   -2.0544 S.3       12 UNK        -0.2931 
      8 C8         30.1194   -4.7025   -1.8648 C.3       12 UNK         0.0378 
      9 C9         30.8842   -3.5271   -2.4560 C.ar      12 UNK        -0.0802 
     10 C10        31.6250   -3.6914   -3.6307 C.ar      12 UNK        -0.0944 
     11 C11        32.3338   -2.6231   -4.1905 C.ar      12 UNK        -0.0787 
     12 C12        32.3124   -1.3858   -3.5367 C.ar      12 UNK        -0.0862 
     13 C13        31.5530   -1.1965   -2.3789 C.ar      12 UNK        -0.0733 
     14 C14        30.8483   -2.2745   -1.8370 C.ar      12 UNK        -0.0832 
     15 C15        31.4915    0.1712   -1.7132 C.3       12 UNK         0.0240 
     16 S16        30.1598    1.2081   -2.4067 S.3       12 UNK        -0.2522 
     17 C17        30.9179    1.8164   -3.9587 C.3       12 UNK        -0.0967 
     18 CA         30.0681    1.5976   -5.2396 C.3       5 UNK         0.0660 
     19 N          29.4397    0.2755   -5.3155 N.am      5 UNK        -0.4015 
     20 C          29.3941   -0.4836   -6.4162 C.2       4 UNK         0.4946 
     21 O          30.0202   -0.2513   -7.4524 O.2       4 UNK        -0.5353 
     22 CA         28.4281   -1.6782   -6.3888 C.3       4 UNK         0.0277 
     23 CB         28.9336   -2.7895   -5.4624 C.3       4 UNK        -0.1981 
     24 N          27.0550   -1.3295   -6.0145 N.am      4 UNK        -0.4209 
     25 C          26.3031   -0.3437   -6.5196 C.2       3 UNK         0.4942 
     26 O          26.7137    0.4778   -7.3400 O.2       3 UNK        -0.5208 
     27 CA         24.8448   -0.2345   -6.0350 C.3       3 UNK         0.0250 
     28 CB         23.9163   -1.0719   -6.9344 C.3       3 UNK        -0.1990 
     29 N          24.6180   -0.5267   -4.6083 N.am      3 UNK        -0.4232 
     30 C          24.7867   -1.6788   -3.9436 C.2       2 UNK         0.4993 
     31 O          25.1995   -2.7222   -4.4572 O.2       2 UNK        -0.5286 
     32 CA         24.4409   -1.6520   -2.4511 C.3       2 UNK         0.0209 
     33 CB         22.9195   -1.7308   -2.2348 C.3       2 UNK        -0.1931 
     34 N          25.0771   -2.7915   -1.7973 N.am      2 UNK        -0.4546 
     35 C          25.6737   -2.7725   -0.6003 C.2       1 UNK         0.5154 
     36 O          25.7358   -1.7703    0.1142 O.2       1 UNK        -0.5181 
     37 C          29.0195    2.7134   -5.4053 C.2       5 UNK         0.5014 
     38 O          29.2843    3.6733   -6.1282 O.2       5 UNK        -0.5248 
     39 N          27.8574    2.5788   -4.7457 N.am      6 UNK        -0.4434 
     40 CA         26.8268    3.6197   -4.6192 C.3       6 UNK         0.0363 
     41 CB         25.7053    3.1164   -3.6971 C.3       6 UNK        -0.1936 
     42 C          26.2381    4.1387   -5.9445 C.2       6 UNK         0.5081 
     43 O          25.9031    5.3206   -6.0277 O.2       6 UNK        -0.5248 
     44 N          26.1365    3.2628   -6.9499 N.am      7 UNK        -0.4718 
     45 CA         25.7286    3.5886   -8.3192 C.3       7 UNK         0.0273 
     46 CB         24.4677    2.7755   -8.6667 C.3       7 UNK        -0.1935 
     47 C          26.8670    3.3049   -9.3177 C.2       7 UNK         0.5018 
     48 O          26.6242    3.3300  -10.5250 O.2       7 UNK        -0.5186 
     49 N          28.0750    3.0219   -8.8013 N.am      8 UNK        -0.4240 
     50 CA         29.2929    2.6209   -9.5130 C.3       8 UNK         0.0235 
     51 CB         29.8616    3.8125  -10.3125 C.3       8 UNK        -0.2000 
     52 C          29.1214    1.3508  -10.3726 C.2       8 UNK         0.4941 
     53 O          29.7746    1.2291  -11.4105 O.2       8 UNK        -0.5273 
     54 N          28.2542    0.4230   -9.9375 N.am      9 UNK        -0.4262 
     55 CA         27.8973   -0.7849  -10.6880 C.3       9 UNK         0.0264 
     56 CB         26.6285   -1.4105  -10.0861 C.3       9 UNK        -0.1955 
     57 C          29.0247   -1.8292  -10.7994 C.2       9 UNK         0.5031 
     58 O          28.9695   -2.6556  -11.7120 O.2       9 UNK        -0.5390 
     59 N          30.0123   -1.7881   -9.8943 N.am      10 UNK        -0.4204 
     60 CA         31.1682   -2.6914   -9.8925 C.3       10 UNK         0.0237 
     61 CB         30.9060   -3.8746   -8.9452 C.3       10 UNK        -0.1985 
     62 C          32.4776   -1.9735   -9.5346 C.2       10 UNK         0.4970 
     63 O          33.5079   -2.2785  -10.1358 O.2       10 UNK        -0.4914 
     64 N          32.4197   -1.0386   -8.5804 N.am      11 UNK        -0.4285 
     65 CA         33.5478   -0.2235   -8.1047 C.3       11 UNK         0.1007 
     66 C          33.5494    1.2156   -8.7006 C.2       11 UNK         0.5703 
     67 N          32.7117    1.5371   -9.6791 N.am      11 UNK        -0.7361 
     68 O          34.3468    2.0554   -8.2903 O.2       11 UNK        -0.4986 
     69 C69        33.5982   -0.2274   -6.5506 C.3       12 UNK        -0.0947 
     70 S70        34.4380   -1.7093   -5.8896 S.3       12 UNK        -0.2240 
     71 C71        33.0545   -2.8425   -5.5234 C.3       12 UNK         0.0194 
     72 H72        23.6195   -7.7070   -0.2973 H         1 UNK         0.0906 
     73 H73        22.9466   -6.6829   -1.5686 H         1 UNK         0.0906 
     74 H74        24.5764   -7.3393   -1.7336 H         1 UNK         0.0906 
     75 H75        26.1583   -5.7919   -1.3402 H         1 UNK         0.3140 
     76 H76        26.1328   -4.1039    0.9794 H         1 UNK         0.1085 
     77 H77        28.2521   -4.9135    0.3079 H         1 UNK         0.0836 
     78 H78        28.2943   -3.2047   -0.0078 H         1 UNK         0.0836 
     79 H79        30.4128   -5.6328   -2.3536 H         1 UNK         0.0731 
     80 H80        30.3875   -4.8193   -0.8139 H         1 UNK         0.0731 
     81 H81        31.6329   -4.6533   -4.1254 H         1 UNK         0.1312 
     82 H82        32.8768   -0.5578   -3.9311 H         1 UNK         0.1406 
     83 H83        30.2637   -2.1367   -0.9380 H         1 UNK         0.1631 
     84 H84        32.4495    0.6855   -1.8043 H         1 UNK         0.0717 
     85 H85        31.3164    0.0524   -0.6429 H         1 UNK         0.0717 
     86 H86        31.1576    2.8739   -3.8264 H         1 UNK         0.0934 
     87 H87        31.8872    1.3451   -4.0988 H         1 UNK         0.0934 
     88 H88        30.7520    1.7098   -6.0844 H         1 UNK         0.0739 
     89 H89        28.9414   -0.0340   -4.4948 H         1 UNK         0.3093 
     90 H90        28.3887   -2.0851   -7.3997 H         1 UNK         0.0818 
     91 H91        29.9315   -3.1123   -5.7525 H         1 UNK         0.0819 
     92 H92        28.9802   -2.4626   -4.4231 H         1 UNK         0.0819 
     93 H93        28.2891   -3.6678   -5.5035 H         1 UNK         0.0819 
     94 H94        26.5794   -1.9702   -5.3813 H         1 UNK         0.3041 
     95 H95        24.5590    0.8102   -6.1661 H         1 UNK         0.0784 
     96 H96        24.0220   -0.7823   -7.9809 H         1 UNK         0.0793 
     97 H97        24.1374   -2.1378   -6.8708 H         1 UNK         0.0793 
     98 H98        22.8699   -0.9302   -6.6642 H         1 UNK         0.0793 
     99 H99        24.2670    0.2565   -4.0751 H         1 UNK         0.3024 
    100 H100       24.8237   -0.7192   -2.0298 H         1 UNK         0.1171 
    101 H101       22.6707   -1.7146   -1.1734 H         1 UNK         0.0786 
    102 H102       22.4081   -0.8867   -2.6992 H         1 UNK         0.0786 
    103 H103       22.4995   -2.6431   -2.6609 H         1 UNK         0.0786 
    104 H104       25.1451   -3.6274   -2.3639 H         1 UNK         0.2977 
    105 H105       27.7387    1.7695   -4.1566 H         1 UNK         0.3127 
    106 H106       27.3023    4.4732   -4.1310 H         1 UNK         0.0770 
    107 H107       25.1933    2.2541   -4.1208 H         1 UNK         0.0814 
    108 H108       24.9550    3.8925   -3.5384 H         1 UNK         0.0814 
    109 H109       26.0890    2.8365   -2.7157 H         1 UNK         0.0814 
    110 H110       26.4410    2.3031   -6.8113 H         1 UNK         0.2983 
    111 H111       25.4900    4.6504   -8.4089 H         1 UNK         0.0947 
    112 H112       24.0814    3.0523   -9.6484 H         1 UNK         0.0806 
    113 H113       23.6700    2.9518   -7.9451 H         1 UNK         0.0806 
    114 H114       24.6715    1.7046   -8.6886 H         1 UNK         0.0806 
    115 H115       28.1781    3.1017   -7.7962 H         1 UNK         0.3000 
    116 H116       30.0200    2.3617   -8.7418 H         1 UNK         0.0850 
    117 H117       30.8273    3.5681  -10.7553 H         1 UNK         0.0810 
    118 H118       30.0121    4.6817   -9.6723 H         1 UNK         0.0810 
    119 H119       29.1977    4.1052  -11.1265 H         1 UNK         0.0810 
    120 H120       27.7717    0.5754   -9.0560 H         1 UNK         0.3040 
    121 H121       27.6570   -0.4707  -11.7060 H         1 UNK         0.0766 
    122 H122       25.8163   -0.6855  -10.0276 H         1 UNK         0.0812 
    123 H123       26.8026   -1.8012   -9.0849 H         1 UNK         0.0812 
    124 H124       26.2773   -2.2415  -10.6991 H         1 UNK         0.0812 
    125 H125       29.9699   -1.0792   -9.1669 H         1 UNK         0.3205 
    126 H126       31.3140   -3.0932  -10.8977 H         1 UNK         0.0754 
    127 H127       31.7698   -4.5391   -8.8964 H         1 UNK         0.0769 
    128 H128       30.0580   -4.4697   -9.2845 H         1 UNK         0.0769 
    129 H129       30.6917   -3.5384   -7.9322 H         1 UNK         0.0769 
    130 H130       31.5285   -0.8166   -8.1418 H         1 UNK         0.2981 
    131 H131       34.4820   -0.6555   -8.4673 H         1 UNK         0.0541 
    132 H132       32.0834    0.8543  -10.0702 H         1 UNK         0.3459 
    133 H133       32.7518    2.4662  -10.0647 H         1 UNK         0.3459 
    134 H134       34.1565    0.6263   -6.1634 H         1 UNK         0.0612 
    135 H135       32.5938   -0.1378   -6.1359 H         1 UNK         0.0612 
    136 H136       33.4556   -3.8568   -5.5475 H         1 UNK         0.0624 
    137 H137       32.3264   -2.7835   -6.3312 H         1 UNK         0.0624 
@<TRIPOS>BOND
     1    1    2 1    
     2    1   72 1    
     3    1   73 1    
     4    1   74 1    
     5    2    3 2    
     6    2    4 am   BACKBONE|DICT|INTERRES
     7    4    5 1    
     8    4   75 1    
     9    5    6 1    
    10    5   35 1    
    11    5   76 1    
    12    6    7 1    
    13    6   77 1    
    14    6   78 1    
    15    7    8 1    
    16    8    9 1    
    17    8   79 1    
    18    8   80 1    
    19    9   10 ar   
    20    9   14 ar   
    21   10   11 ar   
    22   10   81 1    
    23   11   12 ar   
    24   11   71 1    
    25   12   13 ar   
    26   12   82 1    
    27   13   14 ar   
    28   13   15 1    
    29   14   83 1    
    30   15   16 1    
    31   15   84 1    
    32   15   85 1    
    33   16   17 1    
    34   17   18 1    
    35   17   86 1    
    36   17   87 1    
    37   18   19 1    
    38   18   37 1    
    39   18   88 1    
    40   19   20 am   BACKBONE|DICT|INTERRES
    41   19   89 1    
    42   20   21 2    
    43   20   22 1    
    44   22   23 1    
    45   22   24 1    
    46   22   90 1    
    47   23   91 1    
    48   23   92 1    
    49   23   93 1    
    50   24   25 am   BACKBONE|DICT|INTERRES
    51   24   94 1    
    52   25   26 2    
    53   25   27 1    
    54   27   28 1    
    55   27   29 1    
    56   27   95 1    
    57   28   96 1    
    58   28   97 1    
    59   28   98 1    
    60   29   30 am   BACKBONE|DICT|INTERRES
    61   29   99 1    
    62   30   31 2    
    63   30   32 1    
    64   32   33 1    
    65   32   34 1    
    66   32  100 1    
    67   33  101 1    
    68   33  102 1    
    69   33  103 1    
    70   34   35 am   BACKBONE|DICT|INTERRES
    71   34  104 1    
    72   35   36 2    
    73   37   38 2    
    74   37   39 am   BACKBONE|DICT|INTERRES
    75   39   40 1    
    76   39  105 1    
    77   40   41 1    
    78   40   42 1    
    79   40  106 1    
    80   41  107 1    
    81   41  108 1    
    82   41  109 1    
    83   42   43 2    
    84   42   44 am   BACKBONE|DICT|INTERRES
    85   44   45 1    
    86   44  110 1    
    87   45   46 1    
    88   45   47 1    
    89   45  111 1    
    90   46  112 1    
    91   46  113 1    
    92   46  114 1    
    93   47   48 2    
    94   47   49 am   BACKBONE|DICT|INTERRES
    95   49   50 1    
    96   49  115 1    
    97   50   51 1    
    98   50   52 1    
    99   50  116 1    
   100   51  117 1    
   101   51  118 1    
   102   51  119 1    
   103   52   53 2    
   104   52   54 am   BACKBONE|DICT|INTERRES
   105   54   55 1    
   106   54  120 1    
   107   55   56 1    
   108   55   57 1    
   109   55  121 1    
   110   56  122 1    
   111   56  123 1    
   112   56  124 1    
   113   57   58 2    
   114   57   59 am   BACKBONE|DICT|INTERRES
   115   59   60 1    
   116   59  125 1    
   117   60   61 1    
   118   60   62 1    
   119   60  126 1    
   120   61  127 1    
   121   61  128 1    
   122   61  129 1    
   123   62   63 2    
   124   62   64 am   BACKBONE|DICT|INTERRES
   125   64   65 1    
   126   64  130 1    
   127   65   66 1    
   128   65   69 1    
   129   65  131 1    
   130   66   67 am   BACKBONE|DICT|INTERRES
   131   66   68 2    
   132   67  132 1    
   133   67  133 1    
   134   69   70 1    
   135   69  134 1    
   136   69  135 1    
   137   70   71 1    
   138   71  136 1    
   139   71  137 1    
@<TRIPOS>SUBSTRUCTURE
     1 UNK         1 GROUP             0       ****    0 ROOT    
