@<TRIPOS>MOLECULE
3R137
137   139    1
SMALL
USER_CHARGES


@<TRIPOS>ATOM
      1 CA         25.4114   -4.0457    2.6730 C.3       0 UNK        -0.2020 
      2 C          26.6522   -4.6927    2.0630 C.2       0 UNK         0.4855 
      3 O          26.7805   -5.9141    2.1139 O.2       0 UNK        -0.5197 
      4 N          27.5942   -3.9337    1.4845 N.am      1 UNK        -0.4892 
      5 CA         27.5822   -2.4770    1.2832 C.3       1 UNK         0.0835 
      6 C6         28.9971   -1.9297    0.9544 C.3       12 UNK        -0.0855 
      7 S7         29.8709   -2.8475   -0.3634 S.3       12 UNK        -0.2931 
      8 C8         29.6715   -1.7163   -1.7711 C.3       12 UNK         0.0378 
      9 C9         30.0479   -2.4002   -3.0751 C.ar      12 UNK        -0.0802 
     10 C10        31.2608   -2.1186   -3.7104 C.ar      12 UNK        -0.0944 
     11 C11        31.5892   -2.7468   -4.9160 C.ar      12 UNK        -0.0787 
     12 C12        30.6907   -3.6552   -5.4895 C.ar      12 UNK        -0.0862 
     13 C13        29.4798   -3.9531   -4.8554 C.ar      12 UNK        -0.0733 
     14 C14        29.1666   -3.3177   -3.6513 C.ar      12 UNK        -0.0832 
     15 C15        28.5435   -5.0160   -5.4176 C.3       12 UNK         0.0240 
     16 S16        26.8434   -4.4074   -5.6776 S.3       12 UNK        -0.2522 
     17 C17        26.8377   -3.9578   -7.4434 C.3       12 UNK        -0.0967 
     18 CA         26.5711   -2.4620   -7.7341 C.3       5 UNK         0.0660 
     19 N          25.3865   -1.9222   -7.0617 N.am      5 UNK        -0.4015 
     20 C          24.7449   -0.8196   -7.4749 C.2       4 UNK         0.4946 
     21 O          25.0695   -0.1707   -8.4714 O.2       4 UNK        -0.5353 
     22 CA         23.5657   -0.3407   -6.6139 C.3       4 UNK         0.0277 
     23 CB         22.3790   -1.3148   -6.7047 C.3       4 UNK        -0.1981 
     24 N          23.9304   -0.1288   -5.2107 N.am      4 UNK        -0.4209 
     25 C          24.8394    0.7599   -4.7830 C.2       3 UNK         0.4942 
     26 O          25.4865    1.4905   -5.5313 O.2       3 UNK        -0.5208 
     27 CA         25.0741    0.8612   -3.2658 C.3       3 UNK         0.0250 
     28 CB         24.2208    1.9915   -2.6688 C.3       3 UNK        -0.1990 
     29 N          24.8251   -0.3773   -2.5230 N.am      3 UNK        -0.4232 
     30 C          25.5084   -1.5179   -2.6847 C.2       2 UNK         0.4993 
     31 O          26.3795   -1.6774   -3.5409 O.2       2 UNK        -0.5286 
     32 CA         25.1535   -2.6691   -1.7262 C.3       2 UNK         0.0209 
     33 CB         24.9189   -3.9836   -2.4880 C.3       2 UNK        -0.1931 
     34 N          26.1830   -2.8857   -0.7064 N.am      2 UNK        -0.4546 
     35 C          26.5288   -2.0134    0.2522 C.2       1 UNK         0.5154 
     36 O          26.0177   -0.9004    0.3787 O.2       1 UNK        -0.5181 
     37 C          27.8122   -1.5784   -7.5227 C.2       5 UNK         0.5014 
     38 O          28.6158   -1.4716   -8.4496 O.2       5 UNK        -0.5248 
     39 N          27.9168   -0.9129   -6.3601 N.am      6 UNK        -0.4434 
     40 CA         28.9585    0.0770   -6.0752 C.3       6 UNK         0.0363 
     41 CB         28.8207    0.6020   -4.6381 C.3       6 UNK        -0.1936 
     42 C          28.9342    1.2487   -7.0683 C.2       6 UNK         0.5081 
     43 O          29.9793    1.6009   -7.6116 O.2       6 UNK        -0.5248 
     44 N          27.7403    1.8065   -7.3139 N.am      7 UNK        -0.4718 
     45 CA         27.5095    2.8690   -8.2919 C.3       7 UNK         0.0273 
     46 CB         26.0893    3.4309   -8.1228 C.3       7 UNK        -0.1935 
     47 C          27.7426    2.4037   -9.7369 C.2       7 UNK         0.5018 
     48 O          28.3794    3.1293  -10.5006 O.2       7 UNK        -0.5186 
     49 N          27.2463    1.2051  -10.0809 N.am      8 UNK        -0.4240 
     50 CA         27.3819    0.6078  -11.4135 C.3       8 UNK         0.0235 
     51 CB         26.5203   -0.6607  -11.5108 C.3       8 UNK        -0.2000 
     52 C          28.8390    0.3033  -11.8009 C.2       8 UNK         0.4941 
     53 O          29.2376    0.6059  -12.9262 O.2       8 UNK        -0.5273 
     54 N          29.6083   -0.2742  -10.8679 N.am      9 UNK        -0.4262 
     55 CA         31.0263   -0.5958  -11.0541 C.3       9 UNK         0.0264 
     56 CB         31.3873   -1.7853  -10.1509 C.3       9 UNK        -0.1955 
     57 C          31.9687    0.5970  -10.7987 C.2       9 UNK         0.5031 
     58 O          33.1551    0.4870  -11.1126 O.2       9 UNK        -0.5390 
     59 N          31.4401    1.6981  -10.2422 N.am      10 UNK        -0.4204 
     60 CA         32.1388    2.9229   -9.8310 C.3       10 UNK         0.0237 
     61 CB         32.7121    3.6744  -11.0517 C.3       10 UNK        -0.1985 
     62 C          33.1823    2.6579   -8.7272 C.2       10 UNK         0.4970 
     63 O          34.3221    3.1189   -8.8210 O.2       10 UNK        -0.4914 
     64 N          32.7652    1.9018   -7.7067 N.am      11 UNK        -0.4285 
     65 CA         33.5614    1.5449   -6.5259 C.3       11 UNK         0.1007 
     66 C          33.7837    2.7548   -5.5790 C.2       11 UNK         0.5703 
     67 N          34.9027    2.7852   -4.8678 N.am      11 UNK        -0.7361 
     68 O          32.9416    3.6426   -5.4530 O.2       11 UNK        -0.4986 
     69 C69        32.9310    0.3511   -5.7624 C.3       12 UNK        -0.0947 
     70 S70        32.8418   -1.1439   -6.8033 S.3       12 UNK        -0.2240 
     71 C71        32.9342   -2.4817   -5.5771 C.3       12 UNK         0.0194 
     72 H72        24.8596   -4.7730    3.2683 H         1 UNK         0.0906 
     73 H73        25.6726   -3.2193    3.3326 H         1 UNK         0.0906 
     74 H74        24.7414   -3.6810    1.8952 H         1 UNK         0.0906 
     75 H75        28.4088   -4.3928    1.0989 H         1 UNK         0.3140 
     76 H76        27.2910   -2.0178    2.2298 H         1 UNK         0.1085 
     77 H77        29.6163   -1.9973    1.8504 H         1 UNK         0.0836 
     78 H78        28.9629   -0.8648    0.7137 H         1 UNK         0.0836 
     79 H79        28.6351   -1.3813   -1.8278 H         1 UNK         0.0731 
     80 H80        30.2785   -0.8239   -1.6107 H         1 UNK         0.0731 
     81 H81        31.9523   -1.4173   -3.2642 H         1 UNK         0.1312 
     82 H82        30.9497   -4.1494   -6.4159 H         1 UNK         0.1406 
     83 H83        28.2324   -3.5419   -3.1551 H         1 UNK         0.1631 
     84 H84        28.5007   -5.8381   -4.7020 H         1 UNK         0.0717 
     85 H85        28.9381   -5.4453   -6.3392 H         1 UNK         0.0717 
     86 H86        27.7645   -4.2790   -7.9227 H         1 UNK         0.0934 
     87 H87        26.0548   -4.5524   -7.9167 H         1 UNK         0.0934 
     88 H88        26.3613   -2.4120   -8.8041 H         1 UNK         0.0739 
     89 H89        25.0986   -2.3864   -6.2121 H         1 UNK         0.3093 
     90 H90        23.2419    0.6220   -7.0159 H         1 UNK         0.0818 
     91 H91        21.5010   -0.9167   -6.1956 H         1 UNK         0.0819 
     92 H92        22.0959   -1.4878   -7.7441 H         1 UNK         0.0819 
     93 H93        22.6098   -2.2853   -6.2639 H         1 UNK         0.0819 
     94 H94        23.4461   -0.6829   -4.5202 H         1 UNK         0.3041 
     95 H95        26.1240    1.1189   -3.1169 H         1 UNK         0.0784 
     96 H96        24.4078    2.9352   -3.1838 H         1 UNK         0.0793 
     97 H97        23.1539    1.7807   -2.7524 H         1 UNK         0.0793 
     98 H98        24.4519    2.1496   -1.6151 H         1 UNK         0.0793 
     99 H99        24.1501   -0.3208   -1.7737 H         1 UNK         0.3024 
    100 H100       24.2235   -2.4158   -1.2123 H         1 UNK         0.1171 
    101 H101       24.2083   -3.8459   -3.3041 H         1 UNK         0.0786 
    102 H102       24.5140   -4.7543   -1.8321 H         1 UNK         0.0786 
    103 H103       25.8424   -4.3675   -2.9207 H         1 UNK         0.0786 
    104 H104       26.6691   -3.7703   -0.7318 H         1 UNK         0.2977 
    105 H105       27.2418   -1.0936   -5.6267 H         1 UNK         0.3127 
    106 H106       29.9158   -0.4381   -6.1686 H         1 UNK         0.0770 
    107 H107       27.9897    1.2985   -4.5359 H         1 UNK         0.0814 
    108 H108       29.7233    1.1311   -4.3316 H         1 UNK         0.0814 
    109 H109       28.6572   -0.2070   -3.9313 H         1 UNK         0.0814 
    110 H110       26.9297    1.4908   -6.7854 H         1 UNK         0.2983 
    111 H111       28.2204    3.6721   -8.0852 H         1 UNK         0.0947 
    112 H112       25.8950    4.2289   -8.8406 H         1 UNK         0.0806 
    113 H113       25.9462    3.8486   -7.1260 H         1 UNK         0.0806 
    114 H114       25.3303    2.6617   -8.2723 H         1 UNK         0.0806 
    115 H115       26.6967    0.6915   -9.3982 H         1 UNK         0.3000 
    116 H116       26.9952    1.3322  -12.1335 H         1 UNK         0.0850 
    117 H117       26.5446   -1.0702  -12.5215 H         1 UNK         0.0810 
    118 H118       25.4774   -0.4547  -11.2689 H         1 UNK         0.0810 
    119 H119       26.8752   -1.4400  -10.8372 H         1 UNK         0.0810 
    120 H120       29.1969   -0.5404   -9.9738 H         1 UNK         0.3040 
    121 H121       31.1845   -0.9075  -12.0887 H         1 UNK         0.0766 
    122 H122       32.4423   -2.0476  -10.2400 H         1 UNK         0.0812 
    123 H123       30.8077   -2.6707  -10.4118 H         1 UNK         0.0812 
    124 H124       31.1926   -1.5600   -9.1033 H         1 UNK         0.0812 
    125 H125       30.4617    1.6599   -9.9869 H         1 UNK         0.3205 
    126 H126       31.3790    3.5637   -9.3805 H         1 UNK         0.0754 
    127 H127       33.1223    4.6409  -10.7564 H         1 UNK         0.0769 
    128 H128       31.9394    3.8646  -11.7967 H         1 UNK         0.0769 
    129 H129       33.5142    3.1156  -11.5346 H         1 UNK         0.0769 
    130 H130       31.7843    1.6293   -7.6824 H         1 UNK         0.2981 
    131 H131       34.5432    1.2302   -6.8859 H         1 UNK         0.0541 
    132 H132       35.5962    2.0585   -4.9540 H         1 UNK         0.3459 
    133 H133       35.0604    3.5551   -4.2365 H         1 UNK         0.3459 
    134 H134       31.9285    0.5996   -5.4129 H         1 UNK         0.0612 
    135 H135       33.5195    0.1195   -4.8731 H         1 UNK         0.0612 
    136 H136       33.6939   -2.2517   -4.8288 H         1 UNK         0.0624 
    137 H137       33.2757   -3.3867   -6.0816 H         1 UNK         0.0624 
@<TRIPOS>BOND
     1    1    2 1    
     2    1   72 1    
     3    1   73 1    
     4    1   74 1    
     5    2    3 2    
     6    2    4 am   BACKBONE|DICT|INTERRES
     7    4    5 1    
     8    4   75 1    
     9    5    6 1    
    10    5   35 1    
    11    5   76 1    
    12    6    7 1    
    13    6   77 1    
    14    6   78 1    
    15    7    8 1    
    16    8    9 1    
    17    8   79 1    
    18    8   80 1    
    19    9   10 ar   
    20    9   14 ar   
    21   10   11 ar   
    22   10   81 1    
    23   11   12 ar   
    24   11   71 1    
    25   12   13 ar   
    26   12   82 1    
    27   13   14 ar   
    28   13   15 1    
    29   14   83 1    
    30   15   16 1    
    31   15   84 1    
    32   15   85 1    
    33   16   17 1    
    34   17   18 1    
    35   17   86 1    
    36   17   87 1    
    37   18   19 1    
    38   18   37 1    
    39   18   88 1    
    40   19   20 am   BACKBONE|DICT|INTERRES
    41   19   89 1    
    42   20   21 2    
    43   20   22 1    
    44   22   23 1    
    45   22   24 1    
    46   22   90 1    
    47   23   91 1    
    48   23   92 1    
    49   23   93 1    
    50   24   25 am   BACKBONE|DICT|INTERRES
    51   24   94 1    
    52   25   26 2    
    53   25   27 1    
    54   27   28 1    
    55   27   29 1    
    56   27   95 1    
    57   28   96 1    
    58   28   97 1    
    59   28   98 1    
    60   29   30 am   BACKBONE|DICT|INTERRES
    61   29   99 1    
    62   30   31 2    
    63   30   32 1    
    64   32   33 1    
    65   32   34 1    
    66   32  100 1    
    67   33  101 1    
    68   33  102 1    
    69   33  103 1    
    70   34   35 am   BACKBONE|DICT|INTERRES
    71   34  104 1    
    72   35   36 2    
    73   37   38 2    
    74   37   39 am   BACKBONE|DICT|INTERRES
    75   39   40 1    
    76   39  105 1    
    77   40   41 1    
    78   40   42 1    
    79   40  106 1    
    80   41  107 1    
    81   41  108 1    
    82   41  109 1    
    83   42   43 2    
    84   42   44 am   BACKBONE|DICT|INTERRES
    85   44   45 1    
    86   44  110 1    
    87   45   46 1    
    88   45   47 1    
    89   45  111 1    
    90   46  112 1    
    91   46  113 1    
    92   46  114 1    
    93   47   48 2    
    94   47   49 am   BACKBONE|DICT|INTERRES
    95   49   50 1    
    96   49  115 1    
    97   50   51 1    
    98   50   52 1    
    99   50  116 1    
   100   51  117 1    
   101   51  118 1    
   102   51  119 1    
   103   52   53 2    
   104   52   54 am   BACKBONE|DICT|INTERRES
   105   54   55 1    
   106   54  120 1    
   107   55   56 1    
   108   55   57 1    
   109   55  121 1    
   110   56  122 1    
   111   56  123 1    
   112   56  124 1    
   113   57   58 2    
   114   57   59 am   BACKBONE|DICT|INTERRES
   115   59   60 1    
   116   59  125 1    
   117   60   61 1    
   118   60   62 1    
   119   60  126 1    
   120   61  127 1    
   121   61  128 1    
   122   61  129 1    
   123   62   63 2    
   124   62   64 am   BACKBONE|DICT|INTERRES
   125   64   65 1    
   126   64  130 1    
   127   65   66 1    
   128   65   69 1    
   129   65  131 1    
   130   66   67 am   BACKBONE|DICT|INTERRES
   131   66   68 2    
   132   67  132 1    
   133   67  133 1    
   134   69   70 1    
   135   69  134 1    
   136   69  135 1    
   137   70   71 1    
   138   71  136 1    
   139   71  137 1    
@<TRIPOS>SUBSTRUCTURE
     1 UNK         1 GROUP             0       ****    0 ROOT    
