@<TRIPOS>MOLECULE
3R137
137   139    1
SMALL
USER_CHARGES


@<TRIPOS>ATOM
      1 CA         29.8883   -5.3309   -0.6768 C.3       0 UNK        -0.2020 
      2 C          28.5420   -4.8719   -0.1371 C.2       0 UNK         0.4855 
      3 O          27.7836   -5.6855    0.3897 O.2       0 UNK        -0.5197 
      4 N          28.2454   -3.5710   -0.2581 N.am      1 UNK        -0.4892 
      5 CA         27.0380   -2.9179    0.2703 C.3       1 UNK         0.0835 
      6 C6         27.1137   -1.3658    0.2008 C.3       12 UNK        -0.0855 
      7 S7         28.7288   -0.6493    0.6762 S.3       12 UNK        -0.2931 
      8 C8         29.1362    0.3710   -0.7846 C.3       12 UNK         0.0378 
      9 C9         29.9155   -0.3977   -1.8494 C.ar      12 UNK        -0.0802 
     10 C10        31.2184   -0.0112   -2.1797 C.ar      12 UNK        -0.0944 
     11 C11        31.9493   -0.7099   -3.1467 C.ar      12 UNK        -0.0787 
     12 C12        31.3740   -1.8212   -3.7725 C.ar      12 UNK        -0.0862 
     13 C13        30.0706   -2.2153   -3.4588 C.ar      12 UNK        -0.0733 
     14 C14        29.3411   -1.4824   -2.5184 C.ar      12 UNK        -0.0832 
     15 C15        29.4700   -3.4690   -4.0796 C.3       12 UNK         0.0240 
     16 S16        27.9047   -3.1388   -4.9418 S.3       12 UNK        -0.2522 
     17 C17        28.4586   -2.9211   -6.6711 C.3       12 UNK        -0.0967 
     18 CA         27.7197   -1.7852   -7.4222 C.3       5 UNK         0.0660 
     19 N          26.2738   -1.8320   -7.1977 N.am      5 UNK        -0.4015 
     20 C          25.3533   -1.1052   -7.8409 C.2       4 UNK         0.4946 
     21 O          25.6068   -0.3336   -8.7650 O.2       4 UNK        -0.5353 
     22 CA         23.9122   -1.2229   -7.3166 C.3       4 UNK         0.0277 
     23 CB         23.2161   -2.4570   -7.9112 C.3       4 UNK        -0.1981 
     24 N          23.8341   -1.2709   -5.8511 N.am      4 UNK        -0.4209 
     25 C          24.2629   -0.3055   -5.0283 C.2       3 UNK         0.4942 
     26 O          24.7986    0.7300   -5.4218 O.2       3 UNK        -0.5208 
     27 CA         24.1033   -0.5260   -3.5154 C.3       3 UNK         0.0250 
     28 CB         22.6684   -0.2030   -3.0568 C.3       3 UNK        -0.1990 
     29 N          24.5478   -1.8392   -3.0245 N.am      3 UNK        -0.4232 
     30 C          24.0218   -3.0557   -3.2357 C.2       2 UNK         0.4993 
     31 O          23.0730   -3.2645   -3.9932 O.2       2 UNK        -0.5286 
     32 CA         24.6654   -4.2446   -2.4901 C.3       2 UNK         0.0209 
     33 CB         25.0978   -5.3501   -3.4692 C.3       2 UNK        -0.1931 
     34 N          25.8141   -3.8599   -1.6572 N.am      2 UNK        -0.4546 
     35 C          25.7280   -3.3902   -0.4022 C.2       1 UNK         0.5154 
     36 O          24.6634   -3.2746    0.2058 O.2       1 UNK        -0.5181 
     37 C          28.3303   -0.4061   -7.1080 C.2       5 UNK         0.5014 
     38 O          29.1989    0.0449   -7.8549 O.2       5 UNK        -0.5248 
     39 N          27.8568    0.2477   -6.0384 N.am      6 UNK        -0.4434 
     40 CA         28.2781    1.5932   -5.6479 C.3       6 UNK         0.0363 
     41 CB         27.8534    1.8758   -4.2002 C.3       6 UNK        -0.1936 
     42 C          27.7237    2.6620   -6.5998 C.2       6 UNK         0.5081 
     43 O          28.4630    3.5684   -6.9805 O.2       6 UNK        -0.5248 
     44 N          26.4519    2.5155   -6.9995 N.am      7 UNK        -0.4718 
     45 CA         25.7758    3.3756   -7.9756 C.3       7 UNK         0.0273 
     46 CB         24.2837    3.0120   -8.0352 C.3       7 UNK        -0.1935 
     47 C          26.4138    3.3073   -9.3741 C.2       7 UNK         0.5018 
     48 O          26.5776    4.3450  -10.0165 O.2       7 UNK        -0.5186 
     49 N          26.7945    2.0956   -9.8023 N.am      8 UNK        -0.4240 
     50 CA         27.5404    1.8442  -11.0384 C.3       8 UNK         0.0235 
     51 CB         27.4121    0.3548  -11.4003 C.3       8 UNK        -0.2000 
     52 C          29.0283    2.2364  -10.9546 C.2       8 UNK         0.4941 
     53 O          29.6703    2.3409  -12.0004 O.2       8 UNK        -0.5273 
     54 N          29.5520    2.4083   -9.7300 N.am      9 UNK        -0.4262 
     55 CA         30.9628    2.6092   -9.3745 C.3       9 UNK         0.0264 
     56 CB         31.4737    3.9753   -9.8778 C.3       9 UNK        -0.1955 
     57 C          31.8473    1.4273   -9.8197 C.2       9 UNK         0.5031 
     58 O          32.9610    1.6311  -10.3080 O.2       9 UNK        -0.5390 
     59 N          31.3269    0.2042   -9.6444 N.am      10 UNK        -0.4204 
     60 CA         31.9221   -1.0525  -10.1081 C.3       10 UNK         0.0237 
     61 CB         30.9155   -2.1953   -9.8992 C.3       10 UNK        -0.1985 
     62 C          33.2668   -1.3861   -9.4423 C.2       10 UNK         0.4970 
     63 O          34.1093   -2.0237  -10.0752 O.2       10 UNK        -0.4914 
     64 N          33.4466   -0.9378   -8.1946 N.am      11 UNK        -0.4285 
     65 CA         34.7085   -1.0180   -7.4484 C.3       11 UNK         0.1007 
     66 C          35.7528    0.0787   -7.8183 C.2       11 UNK         0.5703 
     67 N          35.4576    1.0228   -8.7062 N.am      11 UNK        -0.7361 
     68 O          36.8676    0.0607   -7.3014 O.2       11 UNK        -0.4986 
     69 C69        34.4561   -1.1268   -5.9220 C.3       12 UNK        -0.0947 
     70 S70        33.5387    0.2805   -5.2059 S.3       12 UNK        -0.2240 
     71 C71        33.3725   -0.2812   -3.4805 C.3       12 UNK         0.0194 
     72 H72        30.4846   -4.4987   -1.0512 H         1 UNK         0.0906 
     73 H73        29.7449   -6.0421   -1.4897 H         1 UNK         0.0906 
     74 H74        30.4578   -5.8248    0.1101 H         1 UNK         0.0906 
     75 H75        28.9454   -2.9402   -0.6242 H         1 UNK         0.3140 
     76 H76        26.9673   -3.2000    1.3233 H         1 UNK         0.1085 
     77 H77        26.3614   -0.9378    0.8667 H         1 UNK         0.0836 
     78 H78        26.8455   -1.0047   -0.7926 H         1 UNK         0.0836 
     79 H79        28.2276    0.7940   -1.2133 H         1 UNK         0.0731 
     80 H80        29.7210    1.2249   -0.4389 H         1 UNK         0.0731 
     81 H81        31.6681    0.8356   -1.6792 H         1 UNK         0.1312 
     82 H82        31.9454   -2.3833   -4.4971 H         1 UNK         0.1406 
     83 H83        28.3259   -1.7739   -2.3034 H         1 UNK         0.1631 
     84 H84        29.2717   -4.1879   -3.2853 H         1 UNK         0.0717 
     85 H85        30.1742   -3.9580   -4.7544 H         1 UNK         0.0717 
     86 H86        29.5397   -2.7707   -6.7044 H         1 UNK         0.0934 
     87 H87        28.2825   -3.8659   -7.1878 H         1 UNK         0.0934 
     88 H88        27.8747   -1.9468   -8.4913 H         1 UNK         0.0739 
     89 H89        25.9723   -2.4308   -6.4428 H         1 UNK         0.3093 
     90 H90        23.3712   -0.3334   -7.6455 H         1 UNK         0.0818 
     91 H91        22.1650   -2.4947   -7.6243 H         1 UNK         0.0819 
     92 H92        23.2526   -2.4384   -9.0014 H         1 UNK         0.0819 
     93 H93        23.6856   -3.3854   -7.5835 H         1 UNK         0.0819 
     94 H94        23.4125   -2.0922   -5.4219 H         1 UNK         0.3041 
     95 H95        24.7619    0.1982   -3.0328 H         1 UNK         0.0784 
     96 H96        22.3881    0.8116   -3.3436 H         1 UNK         0.0793 
     97 H97        21.9342   -0.8774   -3.4984 H         1 UNK         0.0793 
     98 H98        22.5750   -0.2701   -1.9728 H         1 UNK         0.0793 
     99 H99        25.3498   -1.8112   -2.4147 H         1 UNK         0.3024 
    100 H100       23.8879   -4.6606   -1.8449 H         1 UNK         0.1171 
    101 H101       24.2467   -5.7189   -4.0434 H         1 UNK         0.0786 
    102 H102       25.5210   -6.2042   -2.9401 H         1 UNK         0.0786 
    103 H103       25.8398   -4.9976   -4.1837 H         1 UNK         0.0786 
    104 H104       26.7296   -3.9490   -2.0740 H         1 UNK         0.2977 
    105 H105       27.1152   -0.1743   -5.4999 H         1 UNK         0.3127 
    106 H106       29.3691    1.6331   -5.6931 H         1 UNK         0.0770 
    107 H107       26.7698    1.8931   -4.0837 H         1 UNK         0.0814 
    108 H108       28.2329    2.8421   -3.8659 H         1 UNK         0.0814 
    109 H109       28.2519    1.1201   -3.5280 H         1 UNK         0.0814 
    110 H110       25.8990    1.7674   -6.5871 H         1 UNK         0.2983 
    111 H111       25.8631    4.4059   -7.6239 H         1 UNK         0.0947 
    112 H112       23.7494    3.6676   -8.7240 H         1 UNK         0.0806 
    113 H113       23.8118    3.1129   -7.0576 H         1 UNK         0.0806 
    114 H114       24.1309    1.9872   -8.3746 H         1 UNK         0.0806 
    115 H115       26.5383    1.2801   -9.2499 H         1 UNK         0.3000 
    116 H116       27.0900    2.4336  -11.8398 H         1 UNK         0.0850 
    117 H117       27.9276    0.1310  -12.3352 H         1 UNK         0.0810 
    118 H118       26.3686    0.0662  -11.5283 H         1 UNK         0.0810 
    119 H119       27.8428   -0.2840  -10.6280 H         1 UNK         0.0810 
    120 H120       28.9287    2.2935   -8.9413 H         1 UNK         0.3040 
    121 H121       31.0007    2.6234   -8.2840 H         1 UNK         0.0766 
    122 H122       31.5163    4.0170  -10.9665 H         1 UNK         0.0812 
    123 H123       30.8329    4.7875   -9.5346 H         1 UNK         0.0812 
    124 H124       32.4792    4.1763   -9.5061 H         1 UNK         0.0812 
    125 H125       30.4423    0.1355   -9.1401 H         1 UNK         0.3205 
    126 H126       32.1061   -0.9497  -11.1795 H         1 UNK         0.0754 
    127 H127       31.3105   -3.1387  -10.2787 H         1 UNK         0.0769 
    128 H128       29.9797   -2.0015  -10.4240 H         1 UNK         0.0769 
    129 H129       30.6853   -2.3387   -8.8434 H         1 UNK         0.0769 
    130 H130       32.7072   -0.4114   -7.7536 H         1 UNK         0.2981 
    131 H131       35.1899   -1.9549   -7.7350 H         1 UNK         0.0541 
    132 H132       34.5567    1.0554   -9.1695 H         1 UNK         0.3459 
    133 H133       36.1554    1.7137   -8.9307 H         1 UNK         0.3459 
    134 H134       35.4010   -1.2361   -5.3865 H         1 UNK         0.0612 
    135 H135       33.8967   -2.0402   -5.7184 H         1 UNK         0.0612 
    136 H136       34.0548   -1.1082   -3.2794 H         1 UNK         0.0624 
    137 H137       33.6891    0.5343   -2.8287 H         1 UNK         0.0624 
@<TRIPOS>BOND
     1    1    2 1    
     2    1   72 1    
     3    1   73 1    
     4    1   74 1    
     5    2    3 2    
     6    2    4 am   BACKBONE|DICT|INTERRES
     7    4    5 1    
     8    4   75 1    
     9    5    6 1    
    10    5   35 1    
    11    5   76 1    
    12    6    7 1    
    13    6   77 1    
    14    6   78 1    
    15    7    8 1    
    16    8    9 1    
    17    8   79 1    
    18    8   80 1    
    19    9   10 ar   
    20    9   14 ar   
    21   10   11 ar   
    22   10   81 1    
    23   11   12 ar   
    24   11   71 1    
    25   12   13 ar   
    26   12   82 1    
    27   13   14 ar   
    28   13   15 1    
    29   14   83 1    
    30   15   16 1    
    31   15   84 1    
    32   15   85 1    
    33   16   17 1    
    34   17   18 1    
    35   17   86 1    
    36   17   87 1    
    37   18   19 1    
    38   18   37 1    
    39   18   88 1    
    40   19   20 am   BACKBONE|DICT|INTERRES
    41   19   89 1    
    42   20   21 2    
    43   20   22 1    
    44   22   23 1    
    45   22   24 1    
    46   22   90 1    
    47   23   91 1    
    48   23   92 1    
    49   23   93 1    
    50   24   25 am   BACKBONE|DICT|INTERRES
    51   24   94 1    
    52   25   26 2    
    53   25   27 1    
    54   27   28 1    
    55   27   29 1    
    56   27   95 1    
    57   28   96 1    
    58   28   97 1    
    59   28   98 1    
    60   29   30 am   BACKBONE|DICT|INTERRES
    61   29   99 1    
    62   30   31 2    
    63   30   32 1    
    64   32   33 1    
    65   32   34 1    
    66   32  100 1    
    67   33  101 1    
    68   33  102 1    
    69   33  103 1    
    70   34   35 am   BACKBONE|DICT|INTERRES
    71   34  104 1    
    72   35   36 2    
    73   37   38 2    
    74   37   39 am   BACKBONE|DICT|INTERRES
    75   39   40 1    
    76   39  105 1    
    77   40   41 1    
    78   40   42 1    
    79   40  106 1    
    80   41  107 1    
    81   41  108 1    
    82   41  109 1    
    83   42   43 2    
    84   42   44 am   BACKBONE|DICT|INTERRES
    85   44   45 1    
    86   44  110 1    
    87   45   46 1    
    88   45   47 1    
    89   45  111 1    
    90   46  112 1    
    91   46  113 1    
    92   46  114 1    
    93   47   48 2    
    94   47   49 am   BACKBONE|DICT|INTERRES
    95   49   50 1    
    96   49  115 1    
    97   50   51 1    
    98   50   52 1    
    99   50  116 1    
   100   51  117 1    
   101   51  118 1    
   102   51  119 1    
   103   52   53 2    
   104   52   54 am   BACKBONE|DICT|INTERRES
   105   54   55 1    
   106   54  120 1    
   107   55   56 1    
   108   55   57 1    
   109   55  121 1    
   110   56  122 1    
   111   56  123 1    
   112   56  124 1    
   113   57   58 2    
   114   57   59 am   BACKBONE|DICT|INTERRES
   115   59   60 1    
   116   59  125 1    
   117   60   61 1    
   118   60   62 1    
   119   60  126 1    
   120   61  127 1    
   121   61  128 1    
   122   61  129 1    
   123   62   63 2    
   124   62   64 am   BACKBONE|DICT|INTERRES
   125   64   65 1    
   126   64  130 1    
   127   65   66 1    
   128   65   69 1    
   129   65  131 1    
   130   66   67 am   BACKBONE|DICT|INTERRES
   131   66   68 2    
   132   67  132 1    
   133   67  133 1    
   134   69   70 1    
   135   69  134 1    
   136   69  135 1    
   137   70   71 1    
   138   71  136 1    
   139   71  137 1    
@<TRIPOS>SUBSTRUCTURE
     1 UNK         1 GROUP             0       ****    0 ROOT    
