@<TRIPOS>MOLECULE
3R137
137   139    1
SMALL
USER_CHARGES


@<TRIPOS>ATOM
      1 CA         26.7051   -6.4668    0.3857 C.3       0 UNK        -0.2020 
      2 C          26.8983   -4.9858    0.6745 C.2       0 UNK         0.4855 
      3 O          26.3665   -4.4798    1.6629 O.2       0 UNK        -0.5197 
      4 N          27.6561   -4.2876   -0.1812 N.am      1 UNK        -0.4892 
      5 CA         27.9452   -2.8507   -0.0634 C.3       1 UNK         0.0835 
      6 C6         29.1569   -2.4319   -0.9301 C.3       12 UNK        -0.0855 
      7 S7         30.7113   -3.2088   -0.3725 S.3       12 UNK        -0.2931 
      8 C8         30.9414   -4.5529   -1.5826 C.3       12 UNK         0.0378 
      9 C9         31.1040   -4.0396   -3.0072 C.ar      12 UNK        -0.0802 
     10 C10        32.1952   -3.2316   -3.3408 C.ar      12 UNK        -0.0944 
     11 C11        32.3681   -2.7744   -4.6493 C.ar      12 UNK        -0.0787 
     12 C12        31.4367   -3.1378   -5.6256 C.ar      12 UNK        -0.0862 
     13 C13        30.3413   -3.9516   -5.3155 C.ar      12 UNK        -0.0733 
     14 C14        30.1836   -4.4002   -3.9982 C.ar      12 UNK        -0.0832 
     15 C15        29.4083   -4.3860   -6.4485 C.3       12 UNK         0.0240 
     16 S16        27.6995   -4.8315   -5.9716 S.3       12 UNK        -0.2522 
     17 C17        26.9923   -3.2531   -5.3965 C.3       12 UNK        -0.0967 
     18 CA         26.5977   -2.2904   -6.5548 C.3       5 UNK         0.0660 
     19 N          25.3045   -1.6355   -6.3310 N.am      5 UNK        -0.4015 
     20 C          24.6489   -0.8979   -7.2418 C.2       4 UNK         0.4946 
     21 O          25.0261   -0.7421   -8.4026 O.2       4 UNK        -0.5353 
     22 CA         23.3773   -0.1728   -6.7685 C.3       4 UNK         0.0277 
     23 CB         22.1578   -1.1039   -6.8586 C.3       4 UNK        -0.1981 
     24 N          23.4948    0.3548   -5.4071 N.am      4 UNK        -0.4209 
     25 C          24.3571    1.3128   -5.0356 C.2       3 UNK         0.4942 
     26 O          25.1037    1.9024   -5.8139 O.2       3 UNK        -0.5208 
     27 CA         24.4434    1.6273   -3.5333 C.3       3 UNK         0.0250 
     28 CB         23.4257    2.7132   -3.1500 C.3       3 UNK        -0.1990 
     29 N          24.2583    0.4514   -2.6760 N.am      3 UNK        -0.4232 
     30 C          25.0316   -0.6430   -2.7002 C.2       2 UNK         0.4993 
     31 O          25.9733   -0.8067   -3.4830 O.2       2 UNK        -0.5286 
     32 CA         24.6391   -1.7724   -1.7354 C.3       2 UNK         0.0209 
     33 CB         23.6978   -2.7682   -2.4331 C.3       2 UNK        -0.1931 
     34 N          25.8142   -2.4899   -1.2431 N.am      2 UNK        -0.4546 
     35 C          26.7239   -1.9727   -0.4048 C.2       1 UNK         0.5154 
     36 O          26.6268   -0.8520    0.0988 O.2       1 UNK        -0.5181 
     37 C          27.6865   -1.2301   -6.7801 C.2       5 UNK         0.5014 
     38 O          28.3967   -1.2810   -7.7860 O.2       5 UNK        -0.5248 
     39 N          27.7613   -0.2699   -5.8463 N.am      6 UNK        -0.4434 
     40 CA         28.7201    0.8308   -5.8685 C.3       6 UNK         0.0363 
     41 CB         28.5893    1.6705   -4.5896 C.3       6 UNK        -0.1936 
     42 C          28.6097    1.7070   -7.1243 C.2       6 UNK         0.5081 
     43 O          29.6390    2.0232   -7.7194 O.2       6 UNK        -0.5248 
     44 N          27.3771    2.0449   -7.5256 N.am      7 UNK        -0.4718 
     45 CA         27.0770    2.7990   -8.7431 C.3       7 UNK         0.0273 
     46 CB         25.5927    3.1978   -8.7531 C.3       7 UNK        -0.1935 
     47 C          27.4400    2.0397  -10.0288 C.2       7 UNK         0.5018 
     48 O          28.0178    2.6432  -10.9332 O.2       7 UNK        -0.5186 
     49 N          27.1082    0.7409  -10.0902 N.am      8 UNK        -0.4240 
     50 CA         27.3926   -0.1235  -11.2394 C.3       8 UNK         0.0235 
     51 CB         26.6321   -1.4518  -11.0982 C.3       8 UNK        -0.2000 
     52 C          28.8937   -0.3820  -11.4383 C.2       8 UNK         0.4941 
     53 O          29.3740   -0.3152  -12.5705 O.2       8 UNK        -0.5273 
     54 N          29.6043   -0.6723  -10.3411 N.am      9 UNK        -0.4262 
     55 CA         31.0380   -0.9699  -10.3492 C.3       9 UNK         0.0264 
     56 CB         31.3712   -1.7914   -9.0977 C.3       9 UNK        -0.1955 
     57 C          31.9347    0.2782  -10.3997 C.2       9 UNK         0.5031 
     58 O          33.1190    0.1373  -10.7081 O.2       9 UNK        -0.5390 
     59 N          31.3804    1.4507  -10.0542 N.am      10 UNK        -0.4204 
     60 CA         32.0793    2.7130   -9.7789 C.3       10 UNK         0.0237 
     61 CB         32.7807    3.2660  -11.0384 C.3       10 UNK        -0.1985 
     62 C          33.0130    2.5754   -8.5585 C.2       10 UNK         0.4970 
     63 O          34.1790    2.9706   -8.6149 O.2       10 UNK        -0.4914 
     64 N          32.4712    1.9897   -7.4822 N.am      11 UNK        -0.4285 
     65 CA         33.1613    1.7505   -6.2051 C.3       11 UNK         0.1007 
     66 C          33.3792    3.0385   -5.3556 C.2       11 UNK         0.5703 
     67 N          32.6396    4.1171   -5.5903 N.am      11 UNK        -0.7361 
     68 O          34.2439    3.0685   -4.4837 O.2       11 UNK        -0.4986 
     69 C69        32.4508    0.6298   -5.3941 C.3       12 UNK        -0.0947 
     70 S70        33.5686   -0.2813   -4.2774 S.3       12 UNK        -0.2240 
     71 C71        33.5951   -1.9464   -5.0164 C.3       12 UNK         0.0194 
     72 H72        25.6466   -6.6876    0.2508 H         1 UNK         0.0906 
     73 H73        27.2343   -6.7813   -0.5136 H         1 UNK         0.0906 
     74 H74        27.0734   -7.0624    1.2206 H         1 UNK         0.0906 
     75 H75        28.0795   -4.7579   -0.9668 H         1 UNK         0.3140 
     76 H76        28.1903   -2.6436    0.9812 H         1 UNK         0.1085 
     77 H77        28.9746   -2.6477   -1.9841 H         1 UNK         0.0836 
     78 H78        29.3095   -1.3518   -0.8736 H         1 UNK         0.0836 
     79 H79        31.8334   -5.1184   -1.3095 H         1 UNK         0.0731 
     80 H80        30.1074   -5.2515   -1.5089 H         1 UNK         0.0731 
     81 H81        32.9161   -2.9633   -2.5802 H         1 UNK         0.1312 
     82 H82        31.5874   -2.8152   -6.6427 H         1 UNK         0.1406 
     83 H83        29.3573   -5.0499   -3.7462 H         1 UNK         0.1631 
     84 H84        29.3661   -3.6175   -7.2189 H         1 UNK         0.0717 
     85 H85        29.8554   -5.2584   -6.9266 H         1 UNK         0.0717 
     86 H86        26.1067   -3.5232   -4.8203 H         1 UNK         0.0934 
     87 H87        27.6653   -2.7943   -4.6682 H         1 UNK         0.0934 
     88 H88        26.4990   -2.8630   -7.4799 H         1 UNK         0.0739 
     89 H89        24.9669   -1.6340   -5.3794 H         1 UNK         0.3093 
     90 H90        23.2125    0.6728   -7.4400 H         1 UNK         0.0818 
     91 H91        21.2366   -0.5766   -6.6101 H         1 UNK         0.0819 
     92 H92        22.0413   -1.4947   -7.8706 H         1 UNK         0.0819 
     93 H93        22.2477   -1.9592   -6.1877 H         1 UNK         0.0819 
     94 H94        22.9074   -0.0615   -4.6997 H         1 UNK         0.3041 
     95 H95        25.4450    2.0162   -3.3396 H         1 UNK         0.0784 
     96 H96        23.5590    3.6056   -3.7635 H         1 UNK         0.0793 
     97 H97        22.3982    2.3738   -3.2878 H         1 UNK         0.0793 
     98 H98        23.5430    3.0184   -2.1100 H         1 UNK         0.0793 
     99 H99        23.4987    0.4968   -2.0115 H         1 UNK         0.3024 
    100 H100       24.1222   -1.3400   -0.8754 H         1 UNK         0.1171 
    101 H101       23.3823   -3.5581   -1.7509 H         1 UNK         0.0786 
    102 H102       22.7935   -2.2724   -2.7885 H         1 UNK         0.0786 
    103 H103       24.1709   -3.2407   -3.2944 H         1 UNK         0.0786 
    104 H104       25.9795   -3.4127   -1.6152 H         1 UNK         0.2977 
    105 H105       27.1313   -0.3190   -5.0499 H         1 UNK         0.3127 
    106 H106       29.7072    0.3717   -5.8799 H         1 UNK         0.0770 
    107 H107       27.6103    2.1444   -4.5176 H         1 UNK         0.0814 
    108 H108       29.3381    2.4635   -4.5663 H         1 UNK         0.0814 
    109 H109       28.7337    1.0606   -3.6974 H         1 UNK         0.0814 
    110 H110       26.5834    1.7919   -6.9398 H         1 UNK         0.2983 
    111 H111       27.6748    3.7129   -8.7217 H         1 UNK         0.0947 
    112 H112       25.3454    3.7676   -9.6498 H         1 UNK         0.0806 
    113 H113       25.3454    3.8216   -7.8940 H         1 UNK         0.0806 
    114 H114       24.9405    2.3237   -8.7287 H         1 UNK         0.0806 
    115 H115       26.6112    0.3178   -9.3126 H         1 UNK         0.3000 
    116 H116       27.0245    0.3815  -12.1352 H         1 UNK         0.0850 
    117 H117       26.8369   -2.1131  -11.9412 H         1 UNK         0.0810 
    118 H118       25.5547   -1.2888  -11.0694 H         1 UNK         0.0810 
    119 H119       26.9132   -1.9834  -10.1880 H         1 UNK         0.0810 
    120 H120       29.1223   -0.7548   -9.4467 H         1 UNK         0.3040 
    121 H121       31.2681   -1.5773  -11.2272 H         1 UNK         0.0766 
    122 H122       30.7950   -2.7160   -9.0668 H         1 UNK         0.0812 
    123 H123       31.1536   -1.2243   -8.1920 H         1 UNK         0.0812 
    124 H124       32.4274   -2.0635   -9.0718 H         1 UNK         0.0812 
    125 H125       30.4060    1.4377   -9.7782 H         1 UNK         0.3205 
    126 H126       31.3082    3.4308   -9.4947 H         1 UNK         0.0754 
    127 H127       33.1801    4.2637  -10.8527 H         1 UNK         0.0769 
    128 H128       32.0862    3.3451  -11.8748 H         1 UNK         0.0769 
    129 H129       33.6150    2.6386  -11.3529 H         1 UNK         0.0769 
    130 H130       31.4762    1.7828   -7.5110 H         1 UNK         0.2981 
    131 H131       34.1575    1.3869   -6.4649 H         1 UNK         0.0541 
    132 H132       31.9305    4.1064   -6.3054 H         1 UNK         0.3459 
    133 H133       32.7937    4.9489   -5.0428 H         1 UNK         0.3459 
    134 H134       31.9981   -0.0941   -6.0726 H         1 UNK         0.0612 
    135 H135       31.6320    1.0377   -4.7999 H         1 UNK         0.0612 
    136 H136       34.4858   -2.4661   -4.6608 H         1 UNK         0.0624 
    137 H137       33.7065   -1.8622   -6.0987 H         1 UNK         0.0624 
@<TRIPOS>BOND
     1    1    2 1    
     2    1   72 1    
     3    1   73 1    
     4    1   74 1    
     5    2    3 2    
     6    2    4 am   BACKBONE|DICT|INTERRES
     7    4    5 1    
     8    4   75 1    
     9    5    6 1    
    10    5   35 1    
    11    5   76 1    
    12    6    7 1    
    13    6   77 1    
    14    6   78 1    
    15    7    8 1    
    16    8    9 1    
    17    8   79 1    
    18    8   80 1    
    19    9   10 ar   
    20    9   14 ar   
    21   10   11 ar   
    22   10   81 1    
    23   11   12 ar   
    24   11   71 1    
    25   12   13 ar   
    26   12   82 1    
    27   13   14 ar   
    28   13   15 1    
    29   14   83 1    
    30   15   16 1    
    31   15   84 1    
    32   15   85 1    
    33   16   17 1    
    34   17   18 1    
    35   17   86 1    
    36   17   87 1    
    37   18   19 1    
    38   18   37 1    
    39   18   88 1    
    40   19   20 am   BACKBONE|DICT|INTERRES
    41   19   89 1    
    42   20   21 2    
    43   20   22 1    
    44   22   23 1    
    45   22   24 1    
    46   22   90 1    
    47   23   91 1    
    48   23   92 1    
    49   23   93 1    
    50   24   25 am   BACKBONE|DICT|INTERRES
    51   24   94 1    
    52   25   26 2    
    53   25   27 1    
    54   27   28 1    
    55   27   29 1    
    56   27   95 1    
    57   28   96 1    
    58   28   97 1    
    59   28   98 1    
    60   29   30 am   BACKBONE|DICT|INTERRES
    61   29   99 1    
    62   30   31 2    
    63   30   32 1    
    64   32   33 1    
    65   32   34 1    
    66   32  100 1    
    67   33  101 1    
    68   33  102 1    
    69   33  103 1    
    70   34   35 am   BACKBONE|DICT|INTERRES
    71   34  104 1    
    72   35   36 2    
    73   37   38 2    
    74   37   39 am   BACKBONE|DICT|INTERRES
    75   39   40 1    
    76   39  105 1    
    77   40   41 1    
    78   40   42 1    
    79   40  106 1    
    80   41  107 1    
    81   41  108 1    
    82   41  109 1    
    83   42   43 2    
    84   42   44 am   BACKBONE|DICT|INTERRES
    85   44   45 1    
    86   44  110 1    
    87   45   46 1    
    88   45   47 1    
    89   45  111 1    
    90   46  112 1    
    91   46  113 1    
    92   46  114 1    
    93   47   48 2    
    94   47   49 am   BACKBONE|DICT|INTERRES
    95   49   50 1    
    96   49  115 1    
    97   50   51 1    
    98   50   52 1    
    99   50  116 1    
   100   51  117 1    
   101   51  118 1    
   102   51  119 1    
   103   52   53 2    
   104   52   54 am   BACKBONE|DICT|INTERRES
   105   54   55 1    
   106   54  120 1    
   107   55   56 1    
   108   55   57 1    
   109   55  121 1    
   110   56  122 1    
   111   56  123 1    
   112   56  124 1    
   113   57   58 2    
   114   57   59 am   BACKBONE|DICT|INTERRES
   115   59   60 1    
   116   59  125 1    
   117   60   61 1    
   118   60   62 1    
   119   60  126 1    
   120   61  127 1    
   121   61  128 1    
   122   61  129 1    
   123   62   63 2    
   124   62   64 am   BACKBONE|DICT|INTERRES
   125   64   65 1    
   126   64  130 1    
   127   65   66 1    
   128   65   69 1    
   129   65  131 1    
   130   66   67 am   BACKBONE|DICT|INTERRES
   131   66   68 2    
   132   67  132 1    
   133   67  133 1    
   134   69   70 1    
   135   69  134 1    
   136   69  135 1    
   137   70   71 1    
   138   71  136 1    
   139   71  137 1    
@<TRIPOS>SUBSTRUCTURE
     1 UNK         1 GROUP             0       ****    0 ROOT    
