@<TRIPOS>MOLECULE
3R137
137   139    1
SMALL
USER_CHARGES


@<TRIPOS>ATOM
      1 CA         29.8564   -5.6287   -1.1724 C.3       0 UNK        -0.2020 
      2 C          28.7863   -4.9036   -0.3700 C.2       0 UNK         0.4855 
      3 O          28.0386   -5.5445    0.3686 O.2       0 UNK        -0.5197 
      4 N          28.7183   -3.5713   -0.4927 N.am      1 UNK        -0.4892 
      5 CA         27.8217   -2.7108    0.2882 C.3       1 UNK         0.0835 
      6 C6         28.3870   -1.2671    0.4130 C.3       12 UNK        -0.0855 
      7 S7         28.0432   -0.1393   -0.9859 S.3       12 UNK        -0.2931 
      8 C8         29.6751    0.1082   -1.7684 C.3       12 UNK         0.0378 
      9 C9         30.1548   -1.0022   -2.7067 C.ar      12 UNK        -0.0802 
     10 C10        31.4939   -0.9844   -3.1097 C.ar      12 UNK        -0.0944 
     11 C11        31.9983   -1.9520   -3.9866 C.ar      12 UNK        -0.0787 
     12 C12        31.1541   -2.9748   -4.4252 C.ar      12 UNK        -0.0862 
     13 C13        29.8174   -3.0206   -4.0255 C.ar      12 UNK        -0.0733 
     14 C14        29.3147   -2.0125   -3.1953 C.ar      12 UNK        -0.0832 
     15 C15        28.9491   -4.2020   -4.4398 C.3       12 UNK         0.0240 
     16 S16        27.4202   -3.7170   -5.2802 S.3       12 UNK        -0.2522 
     17 C17        28.0229   -3.2025   -6.9205 C.3       12 UNK        -0.0967 
     18 CA         27.3148   -1.9381   -7.4671 C.3       5 UNK         0.0660 
     19 N          25.8672   -1.9650   -7.2390 N.am      5 UNK        -0.4015 
     20 C          24.9695   -1.2242   -7.8967 C.2       4 UNK         0.4946 
     21 O          25.2582   -0.4368   -8.7974 O.2       4 UNK        -0.5353 
     22 CA         23.5076   -1.3670   -7.4441 C.3       4 UNK         0.0277 
     23 CB         22.9179   -2.7110   -7.9027 C.3       4 UNK        -0.1981 
     24 N          23.3364   -1.2168   -5.9943 N.am      4 UNK        -0.4209 
     25 C          23.5837   -0.0832   -5.3223 C.2       3 UNK         0.4942 
     26 O          24.0329    0.9341   -5.8473 O.2       3 UNK        -0.5208 
     27 CA         23.2747   -0.0632   -3.8158 C.3       3 UNK         0.0250 
     28 CB         21.8259    0.3908   -3.5754 C.3       3 UNK        -0.1990 
     29 N          23.5103   -1.3316   -3.1190 N.am      3 UNK        -0.4232 
     30 C          24.7144   -1.8971   -2.9637 C.2       2 UNK         0.4993 
     31 O          25.7380   -1.4802   -3.5098 O.2       2 UNK        -0.5286 
     32 CA         24.7738   -3.1382   -2.0573 C.3       2 UNK         0.0209 
     33 CB         24.5230   -4.4245   -2.8607 C.3       2 UNK        -0.1931 
     34 N          26.0822   -3.2183   -1.4036 N.am      2 UNK        -0.4546 
     35 C          26.3436   -2.7524   -0.1731 C.2       1 UNK         0.5154 
     36 O          25.4697   -2.3489    0.5973 O.2       1 UNK        -0.5181 
     37 C          27.9667   -0.6286   -6.9802 C.2       5 UNK         0.5014 
     38 O          28.9578   -0.2015   -7.5778 O.2       5 UNK        -0.5248 
     39 N          27.3826    0.0124   -5.9559 N.am      6 UNK        -0.4434 
     40 CA         27.7505    1.3585   -5.5153 C.3       6 UNK         0.0363 
     41 CB         27.0616    1.6814   -4.1821 C.3       6 UNK        -0.1936 
     42 C          27.4064    2.4191   -6.5740 C.2       6 UNK         0.5081 
     43 O          28.2654    3.2325   -6.9111 O.2       6 UNK        -0.5248 
     44 N          26.1752    2.3718   -7.1057 N.am      7 UNK        -0.4718 
     45 CA         25.6842    3.2586   -8.1660 C.3       7 UNK         0.0273 
     46 CB         24.1724    3.0553   -8.3534 C.3       7 UNK        -0.1935 
     47 C          26.4266    3.0721   -9.4991 C.2       7 UNK         0.5018 
     48 O          26.7200    4.0621  -10.1702 O.2       7 UNK        -0.5186 
     49 N          26.7497    1.8163   -9.8401 N.am      8 UNK        -0.4240 
     50 CA         27.5862    1.4550  -10.9892 C.3       8 UNK         0.0235 
     51 CB         27.4331   -0.0481  -11.2718 C.3       8 UNK        -0.2000 
     52 C          29.0749    1.8114  -10.8072 C.2       8 UNK         0.4941 
     53 O          29.8048    1.8179  -11.7991 O.2       8 UNK        -0.5273 
     54 N          29.4935    2.0860   -9.5615 N.am      9 UNK        -0.4262 
     55 CA         30.8529    2.3969   -9.1128 C.3       9 UNK         0.0264 
     56 CB         31.3195    3.7577   -9.6719 C.3       9 UNK        -0.1955 
     57 C          31.8356    1.2498   -9.4051 C.2       9 UNK         0.5031 
     58 O          32.8869    1.4772  -10.0080 O.2       9 UNK        -0.5390 
     59 N          31.4788    0.0362   -8.9564 N.am      10 UNK        -0.4204 
     60 CA         32.2176   -1.2175   -9.1763 C.3       10 UNK         0.0237 
     61 CB         31.4564   -2.3681   -8.4991 C.3       10 UNK        -0.1985 
     62 C          33.6911   -1.2121   -8.7183 C.2       10 UNK         0.4970 
     63 O          34.4959   -1.9608   -9.2738 O.2       10 UNK        -0.4914 
     64 N          34.0102   -0.3666   -7.7354 N.am      11 UNK        -0.4285 
     65 CA         35.3571   -0.0892   -7.2156 C.3       11 UNK         0.1007 
     66 C          35.7472    1.4138   -7.3408 C.2       11 UNK         0.5703 
     67 N          35.0696    2.2096   -8.1616 N.am      11 UNK        -0.7361 
     68 O          36.6962    1.8690   -6.7063 O.2       11 UNK        -0.4986 
     69 C69        35.5598   -0.6743   -5.7878 C.3       12 UNK        -0.0947 
     70 S70        34.1941   -0.2934   -4.6338 S.3       12 UNK        -0.2240 
     71 C71        33.4529   -1.9519   -4.4505 C.3       12 UNK         0.0194 
     72 H72        30.5219   -6.1700   -0.5004 H         1 UNK         0.0906 
     73 H73        29.3988   -6.3512   -1.8475 H         1 UNK         0.0906 
     74 H74        30.4634   -4.9416   -1.7618 H         1 UNK         0.0906 
     75 H75        29.3545   -3.0896   -1.1139 H         1 UNK         0.3140 
     76 H76        27.8117   -3.1185    1.3022 H         1 UNK         0.1085 
     77 H77        27.9525   -0.7985    1.2979 H         1 UNK         0.0836 
     78 H78        29.4600   -1.2957    0.6092 H         1 UNK         0.0836 
     79 H79        29.6273    1.0317   -2.3469 H         1 UNK         0.0731 
     80 H80        30.4166    0.2784   -0.9864 H         1 UNK         0.0731 
     81 H81        32.1443   -0.2034   -2.7409 H         1 UNK         0.1312 
     82 H82        31.5457   -3.7494   -5.0705 H         1 UNK         0.1406 
     83 H83        28.2685   -2.0301   -2.9255 H         1 UNK         0.1631 
     84 H84        28.6699   -4.7616   -3.5489 H         1 UNK         0.0717 
     85 H85        29.4990   -4.8974   -5.0761 H         1 UNK         0.0717 
     86 H86        29.1054   -3.0695   -6.8962 H         1 UNK         0.0934 
     87 H87        27.8479   -4.0356   -7.6028 H         1 UNK         0.0934 
     88 H88        27.4601   -1.9499   -8.5486 H         1 UNK         0.0739 
     89 H89        25.5579   -2.5650   -6.4872 H         1 UNK         0.3093 
     90 H90        22.9403   -0.5685   -7.9276 H         1 UNK         0.0818 
     91 H91        21.8510   -2.7693   -7.6861 H         1 UNK         0.0819 
     92 H92        23.0342   -2.8399   -8.9798 H         1 UNK         0.0819 
     93 H93        23.4048   -3.5584   -7.4186 H         1 UNK         0.0819 
     94 H94        22.9677   -2.0068   -5.4855 H         1 UNK         0.3041 
     95 H95        23.9370    0.6795   -3.3656 H         1 UNK         0.0784 
     96 H96        21.6307    1.3469   -4.0637 H         1 UNK         0.0793 
     97 H97        21.1054   -0.3281   -3.9676 H         1 UNK         0.0793 
     98 H98        21.6228    0.5263   -2.5128 H         1 UNK         0.0793 
     99 H99        22.7130   -1.7454   -2.6569 H         1 UNK         0.3024 
    100 H100       23.9885   -3.0524   -1.3027 H         1 UNK         0.1171 
    101 H101       23.5524   -4.3951   -3.3574 H         1 UNK         0.0786 
    102 H102       24.5262   -5.2998   -2.2109 H         1 UNK         0.0786 
    103 H103       25.2770   -4.5815   -3.6296 H         1 UNK         0.0786 
    104 H104       26.8589   -3.4864   -1.9883 H         1 UNK         0.2977 
    105 H105       26.6085   -0.4305   -5.4767 H         1 UNK         0.3127 
    106 H106       28.8306    1.3705   -5.3526 H         1 UNK         0.0770 
    107 H107       25.9873    1.8216   -4.2959 H         1 UNK         0.0814 
    108 H108       27.4652    2.5960   -3.7469 H         1 UNK         0.0814 
    109 H109       27.2110    0.8804   -3.4624 H         1 UNK         0.0814 
    110 H110       25.5064    1.6985   -6.7364 H         1 UNK         0.2983 
    111 H111       25.8517    4.2874   -7.8399 H         1 UNK         0.0947 
    112 H112       23.7817    3.7124   -9.1314 H         1 UNK         0.0806 
    113 H113       23.6270    3.2780   -7.4362 H         1 UNK         0.0806 
    114 H114       23.9359    2.0299   -8.6402 H         1 UNK         0.0806 
    115 H115       26.3823    1.0507   -9.2791 H         1 UNK         0.3000 
    116 H116       27.2224    2.0058  -11.8592 H         1 UNK         0.0850 
    117 H117       27.9791   -0.3342  -12.1717 H         1 UNK         0.0810 
    118 H118       26.3889   -0.3215  -11.4252 H         1 UNK         0.0810 
    119 H119       27.8221   -0.6500  -10.4510 H         1 UNK         0.0810 
    120 H120       28.8063    2.0374   -8.8196 H         1 UNK         0.3040 
    121 H121       30.8018    2.4884   -8.0267 H         1 UNK         0.0766 
    122 H122       32.2872    4.0390   -9.2548 H         1 UNK         0.0812 
    123 H123       30.6149    4.5502   -9.4200 H         1 UNK         0.0812 
    124 H124       31.4275    3.7365  -10.7568 H         1 UNK         0.0812 
    125 H125       30.5883   -0.0446   -8.4651 H         1 UNK         0.3205 
    126 H126       32.2220   -1.3978  -10.2530 H         1 UNK         0.0754 
    127 H127       31.9654   -3.3212   -8.6493 H         1 UNK         0.0769 
    128 H128       30.4516   -2.4704   -8.9094 H         1 UNK         0.0769 
    129 H129       31.3682   -2.2087   -7.4236 H         1 UNK         0.0769 
    130 H130       33.2771    0.2019   -7.3383 H         1 UNK         0.2981 
    131 H131       36.0852   -0.5869   -7.8580 H         1 UNK         0.0541 
    132 H132       34.3393    1.8463   -8.7662 H         1 UNK         0.3459 
    133 H133       35.3439    3.1760   -8.2369 H         1 UNK         0.3459 
    134 H134       36.4950   -0.3292   -5.3442 H         1 UNK         0.0612 
    135 H135       35.6727   -1.7564   -5.8636 H         1 UNK         0.0612 
    136 H136       34.0520   -2.5323   -3.7479 H         1 UNK         0.0624 
    137 H137       33.5151   -2.4623   -5.4132 H         1 UNK         0.0624 
@<TRIPOS>BOND
     1    1    2 1    
     2    1   72 1    
     3    1   73 1    
     4    1   74 1    
     5    2    3 2    
     6    2    4 am   BACKBONE|DICT|INTERRES
     7    4    5 1    
     8    4   75 1    
     9    5    6 1    
    10    5   35 1    
    11    5   76 1    
    12    6    7 1    
    13    6   77 1    
    14    6   78 1    
    15    7    8 1    
    16    8    9 1    
    17    8   79 1    
    18    8   80 1    
    19    9   10 ar   
    20    9   14 ar   
    21   10   11 ar   
    22   10   81 1    
    23   11   12 ar   
    24   11   71 1    
    25   12   13 ar   
    26   12   82 1    
    27   13   14 ar   
    28   13   15 1    
    29   14   83 1    
    30   15   16 1    
    31   15   84 1    
    32   15   85 1    
    33   16   17 1    
    34   17   18 1    
    35   17   86 1    
    36   17   87 1    
    37   18   19 1    
    38   18   37 1    
    39   18   88 1    
    40   19   20 am   BACKBONE|DICT|INTERRES
    41   19   89 1    
    42   20   21 2    
    43   20   22 1    
    44   22   23 1    
    45   22   24 1    
    46   22   90 1    
    47   23   91 1    
    48   23   92 1    
    49   23   93 1    
    50   24   25 am   BACKBONE|DICT|INTERRES
    51   24   94 1    
    52   25   26 2    
    53   25   27 1    
    54   27   28 1    
    55   27   29 1    
    56   27   95 1    
    57   28   96 1    
    58   28   97 1    
    59   28   98 1    
    60   29   30 am   BACKBONE|DICT|INTERRES
    61   29   99 1    
    62   30   31 2    
    63   30   32 1    
    64   32   33 1    
    65   32   34 1    
    66   32  100 1    
    67   33  101 1    
    68   33  102 1    
    69   33  103 1    
    70   34   35 am   BACKBONE|DICT|INTERRES
    71   34  104 1    
    72   35   36 2    
    73   37   38 2    
    74   37   39 am   BACKBONE|DICT|INTERRES
    75   39   40 1    
    76   39  105 1    
    77   40   41 1    
    78   40   42 1    
    79   40  106 1    
    80   41  107 1    
    81   41  108 1    
    82   41  109 1    
    83   42   43 2    
    84   42   44 am   BACKBONE|DICT|INTERRES
    85   44   45 1    
    86   44  110 1    
    87   45   46 1    
    88   45   47 1    
    89   45  111 1    
    90   46  112 1    
    91   46  113 1    
    92   46  114 1    
    93   47   48 2    
    94   47   49 am   BACKBONE|DICT|INTERRES
    95   49   50 1    
    96   49  115 1    
    97   50   51 1    
    98   50   52 1    
    99   50  116 1    
   100   51  117 1    
   101   51  118 1    
   102   51  119 1    
   103   52   53 2    
   104   52   54 am   BACKBONE|DICT|INTERRES
   105   54   55 1    
   106   54  120 1    
   107   55   56 1    
   108   55   57 1    
   109   55  121 1    
   110   56  122 1    
   111   56  123 1    
   112   56  124 1    
   113   57   58 2    
   114   57   59 am   BACKBONE|DICT|INTERRES
   115   59   60 1    
   116   59  125 1    
   117   60   61 1    
   118   60   62 1    
   119   60  126 1    
   120   61  127 1    
   121   61  128 1    
   122   61  129 1    
   123   62   63 2    
   124   62   64 am   BACKBONE|DICT|INTERRES
   125   64   65 1    
   126   64  130 1    
   127   65   66 1    
   128   65   69 1    
   129   65  131 1    
   130   66   67 am   BACKBONE|DICT|INTERRES
   131   66   68 2    
   132   67  132 1    
   133   67  133 1    
   134   69   70 1    
   135   69  134 1    
   136   69  135 1    
   137   70   71 1    
   138   71  136 1    
   139   71  137 1    
@<TRIPOS>SUBSTRUCTURE
     1 UNK         1 GROUP             0       ****    0 ROOT    
