@<TRIPOS>MOLECULE
3R137
137   139    1
SMALL
USER_CHARGES


@<TRIPOS>ATOM
      1 CA         31.6251   -0.1710   -0.0747 C.3       0 UNK        -0.2020 
      2 C          30.5356   -0.7501   -0.9633 C.2       0 UNK         0.4855 
      3 O          30.2133   -0.1637   -1.9948 O.2       0 UNK        -0.5197 
      4 N          29.9495   -1.8862   -0.5642 N.am      1 UNK        -0.4892 
      5 CA         28.9574   -2.6801   -1.3105 C.3       1 UNK         0.0835 
      6 C6         28.9033   -4.1468   -0.7913 C.3       12 UNK        -0.0855 
      7 S7         30.5463   -4.9281   -0.6023 S.3       12 UNK        -0.2931 
      8 C8         30.6192   -6.0421   -2.0417 C.3       12 UNK         0.0378 
      9 C9         30.5596   -5.2951   -3.3676 C.ar      12 UNK        -0.0802 
     10 C10        31.4923   -4.2952   -3.6627 C.ar      12 UNK        -0.0944 
     11 C11        31.4433   -3.6141   -4.8821 C.ar      12 UNK        -0.0787 
     12 C12        30.4503   -3.9398   -5.8104 C.ar      12 UNK        -0.0862 
     13 C13        29.5209   -4.9474   -5.5349 C.ar      12 UNK        -0.0733 
     14 C14        29.5830   -5.6231   -4.3124 C.ar      12 UNK        -0.0832 
     15 C15        28.4616   -5.3134   -6.5678 C.3       12 UNK         0.0240 
     16 S16        26.7599   -5.1895   -5.9234 S.3       12 UNK        -0.2522 
     17 C17        26.6908   -3.4395   -5.4281 C.3       12 UNK        -0.0967 
     18 CA         26.4396   -2.4963   -6.6383 C.3       5 UNK         0.0660 
     19 N          25.0937   -1.9188   -6.6197 N.am      5 UNK        -0.4015 
     20 C          24.5472   -1.2036   -7.6139 C.2       4 UNK         0.4946 
     21 O          25.1011   -0.9904   -8.6909 O.2       4 UNK        -0.5353 
     22 CA         23.1559   -0.5972   -7.3633 C.3       4 UNK         0.0277 
     23 CB         22.0599   -1.5342   -7.8952 C.3       4 UNK        -0.1981 
     24 N          22.8942   -0.2905   -5.9559 N.am      4 UNK        -0.4209 
     25 C          23.5780    0.5922   -5.2138 C.2       3 UNK         0.4942 
     26 O          24.4985    1.2860   -5.6538 O.2       3 UNK        -0.5208 
     27 CA         23.1747    0.7098   -3.7282 C.3       3 UNK         0.0250 
     28 CB         22.2050   -0.3964   -3.2500 C.3       3 UNK        -0.1990 
     29 N          24.3215    0.7750   -2.8139 N.am      3 UNK        -0.4232 
     30 C          25.3673   -0.0635   -2.7480 C.2       2 UNK         0.4993 
     31 O          25.5824   -0.9655   -3.5625 O.2       2 UNK        -0.5286 
     32 CA         26.3445    0.1953   -1.5843 C.3       2 UNK         0.0209 
     33 CB         25.6309    0.1863   -0.2136 C.3       2 UNK        -0.1931 
     34 N          27.5028   -0.7081   -1.5686 N.am      2 UNK        -0.4546 
     35 C          27.5489   -2.0263   -1.3281 C.2       1 UNK         0.5154 
     36 O          26.5531   -2.7111   -1.0831 O.2       1 UNK        -0.5181 
     37 C          27.5086   -1.3928   -6.7252 C.2       5 UNK         0.5014 
     38 O          28.3427   -1.4224   -7.6328 O.2       5 UNK        -0.5248 
     39 N          27.4272   -0.4179   -5.8078 N.am      6 UNK        -0.4434 
     40 CA         28.2872    0.7658   -5.7942 C.3       6 UNK         0.0363 
     41 CB         28.0574    1.5849   -4.5182 C.3       6 UNK        -0.1936 
     42 C          28.1030    1.6441   -7.0374 C.2       6 UNK         0.5081 
     43 O          29.0985    2.1047   -7.5906 O.2       6 UNK        -0.5248 
     44 N          26.8513    1.8342   -7.4797 N.am      7 UNK        -0.4718 
     45 CA         26.5211    2.5938   -8.6897 C.3       7 UNK         0.0273 
     46 CB         24.9978    2.7487   -8.8104 C.3       7 UNK        -0.1935 
     47 C          27.1088    1.9794   -9.9733 C.2       7 UNK         0.5018 
     48 O          27.5977    2.7237  -10.8241 O.2       7 UNK        -0.5186 
     49 N          27.0633    0.6443  -10.0855 N.am      8 UNK        -0.4240 
     50 CA         27.6248   -0.1079  -11.2070 C.3       8 UNK         0.0235 
     51 CB         27.0494   -1.5340  -11.2179 C.3       8 UNK        -0.2000 
     52 C          29.1604   -0.1446  -11.1883 C.2       8 UNK         0.4941 
     53 O          29.7803    0.1344  -12.2155 O.2       8 UNK        -0.5273 
     54 N          29.7470   -0.5121  -10.0403 N.am      9 UNK        -0.4262 
     55 CA         31.1911   -0.7270   -9.9031 C.3       9 UNK         0.0264 
     56 CB         31.4416   -1.7112   -8.7529 C.3       9 UNK        -0.1955 
     57 C          32.0068    0.5588   -9.6892 C.2       9 UNK         0.5031 
     58 O          33.2190    0.5278   -9.9053 O.2       9 UNK        -0.5390 
     59 N          31.3538    1.6410   -9.2402 N.am      10 UNK        -0.4204 
     60 CA         31.9311    2.9298   -8.8318 C.3       10 UNK         0.0237 
     61 CB         32.6719    3.6194   -9.9984 C.3       10 UNK        -0.1985 
     62 C          32.7786    2.8449   -7.5440 C.2       10 UNK         0.4970 
     63 O          33.5885    3.7404   -7.2954 O.2       10 UNK        -0.4914 
     64 N          32.5799    1.7874   -6.7452 N.am      11 UNK        -0.4285 
     65 CA         33.2213    1.5851   -5.4400 C.3       11 UNK         0.1007 
     66 C          32.5459    2.3943   -4.2951 C.2       11 UNK         0.5703 
     67 N          33.1753    2.4567   -3.1286 N.am      11 UNK        -0.7361 
     68 O          31.4699    2.9702   -4.4474 O.2       11 UNK        -0.4986 
     69 C69        33.3928    0.0763   -5.1146 C.3       12 UNK        -0.0947 
     70 S70        31.8393   -0.8711   -4.9803 S.3       12 UNK        -0.2240 
     71 C71        32.4851   -2.5545   -5.2072 C.3       12 UNK         0.0194 
     72 H72        31.8366   -0.8101    0.7823 H         1 UNK         0.0906 
     73 H73        32.5460   -0.0521   -0.6453 H         1 UNK         0.0906 
     74 H74        31.3253    0.8090    0.2956 H         1 UNK         0.0906 
     75 H75        30.2511   -2.3092    0.3023 H         1 UNK         0.3140 
     76 H76        29.2856   -2.7143   -2.3523 H         1 UNK         0.1085 
     77 H77        28.4191   -4.1830    0.1866 H         1 UNK         0.0836 
     78 H78        28.2875   -4.7602   -1.4522 H         1 UNK         0.0836 
     79 H79        31.5500   -6.6093   -2.0002 H         1 UNK         0.0731 
     80 H80        29.8115   -6.7718   -1.9643 H         1 UNK         0.0731 
     81 H81        32.2565   -4.0477   -2.9385 H         1 UNK         0.1312 
     82 H82        30.4057   -3.4115   -6.7513 H         1 UNK         0.1406 
     83 H83        28.8646   -6.4035   -4.0997 H         1 UNK         0.1631 
     84 H84        28.6362   -6.3361   -6.9046 H         1 UNK         0.0717 
     85 H85        28.5477   -4.6805   -7.4527 H         1 UNK         0.0717 
     86 H86        27.6016   -3.1929   -4.8784 H         1 UNK         0.0934 
     87 H87        25.8979   -3.3461   -4.6844 H         1 UNK         0.0934 
     88 H88        26.5184   -3.0654   -7.5674 H         1 UNK         0.0739 
     89 H89        24.5862   -1.9968   -5.7503 H         1 UNK         0.3093 
     90 H90        23.0981    0.3399   -7.9186 H         1 UNK         0.0818 
     91 H91        21.0720   -1.0816   -7.8072 H         1 UNK         0.0819 
     92 H92        22.2180   -1.7573   -8.9515 H         1 UNK         0.0819 
     93 H93        22.0444   -2.4850   -7.3608 H         1 UNK         0.0819 
     94 H94        22.1517   -0.8098   -5.5099 H         1 UNK         0.3041 
     95 H95        22.6572    1.6659   -3.6376 H         1 UNK         0.0784 
     96 H96        21.2655   -0.3785   -3.8040 H         1 UNK         0.0793 
     97 H97        22.6408   -1.3917   -3.3507 H         1 UNK         0.0793 
     98 H98        21.9472   -0.2602   -2.1995 H         1 UNK         0.0793 
     99 H99        24.2798    1.5250   -2.1386 H         1 UNK         0.3024 
    100 H100       26.7532    1.1951   -1.7392 H         1 UNK         0.1171 
    101 H101       26.3421    0.3089    0.6035 H         1 UNK         0.0786 
    102 H102       25.0871   -0.7440   -0.0451 H         1 UNK         0.0786 
    103 H103       24.9105    1.0003   -0.1301 H         1 UNK         0.0786 
    104 H104       28.4010   -0.2785   -1.7843 H         1 UNK         0.2977 
    105 H105       26.7072   -0.4832   -5.0923 H         1 UNK         0.3127 
    106 H106       29.3226    0.4217   -5.7905 H         1 UNK         0.0770 
    107 H107       27.0171    1.8948   -4.4152 H         1 UNK         0.0814 
    108 H108       28.6700    2.4877   -4.5211 H         1 UNK         0.0814 
    109 H109       28.3416    1.0146   -3.6363 H         1 UNK         0.0814 
    110 H110       26.0777    1.4583   -6.9390 H         1 UNK         0.2983 
    111 H111       26.9547    3.5897   -8.5745 H         1 UNK         0.0947 
    112 H112       24.7402    3.4102   -9.6385 H         1 UNK         0.0806 
    113 H113       24.5650    3.1757   -7.9054 H         1 UNK         0.0806 
    114 H114       24.5123    1.7921   -8.9989 H         1 UNK         0.0806 
    115 H115       26.5827    0.1056   -9.3694 H         1 UNK         0.3000 
    116 H116       27.3165    0.3837  -12.1324 H         1 UNK         0.0850 
    117 H117       27.4601   -2.1169  -12.0434 H         1 UNK         0.0810 
    118 H118       25.9659   -1.5208  -11.3377 H         1 UNK         0.0810 
    119 H119       27.2741   -2.0687  -10.2939 H         1 UNK         0.0810 
    120 H120       29.1684   -0.7453   -9.2349 H         1 UNK         0.3040 
    121 H121       31.5621   -1.1910  -10.8197 H         1 UNK         0.0766 
    122 H122       32.5073   -1.9058   -8.6248 H         1 UNK         0.0812 
    123 H123       31.0617   -1.3223   -7.8085 H         1 UNK         0.0812 
    124 H124       30.9574   -2.6687   -8.9439 H         1 UNK         0.0812 
    125 H125       30.3646    1.5497   -9.0244 H         1 UNK         0.3205 
    126 H126       31.0812    3.5644   -8.5778 H         1 UNK         0.0754 
    127 H127       32.9310    4.6474   -9.7426 H         1 UNK         0.0769 
    128 H128       32.0522    3.6567  -10.8944 H         1 UNK         0.0769 
    129 H129       33.6003    3.1073  -10.2519 H         1 UNK         0.0769 
    130 H130       31.8553    1.1288   -6.9856 H         1 UNK         0.2981 
    131 H131       34.2311    1.9925   -5.5199 H         1 UNK         0.0541 
    132 H132       34.0598    1.9960   -2.9857 H         1 UNK         0.3459 
    133 H133       32.7514    2.9745   -2.3755 H         1 UNK         0.3459 
    134 H134       33.9512   -0.0546   -4.1864 H         1 UNK         0.0612 
    135 H135       34.0061   -0.3830   -5.8917 H         1 UNK         0.0612 
    136 H136       32.8271   -2.6759   -6.2356 H         1 UNK         0.0624 
    137 H137       33.3640   -2.6870   -4.5742 H         1 UNK         0.0624 
@<TRIPOS>BOND
     1    1    2 1    
     2    1   72 1    
     3    1   73 1    
     4    1   74 1    
     5    2    3 2    
     6    2    4 am   BACKBONE|DICT|INTERRES
     7    4    5 1    
     8    4   75 1    
     9    5    6 1    
    10    5   35 1    
    11    5   76 1    
    12    6    7 1    
    13    6   77 1    
    14    6   78 1    
    15    7    8 1    
    16    8    9 1    
    17    8   79 1    
    18    8   80 1    
    19    9   10 ar   
    20    9   14 ar   
    21   10   11 ar   
    22   10   81 1    
    23   11   12 ar   
    24   11   71 1    
    25   12   13 ar   
    26   12   82 1    
    27   13   14 ar   
    28   13   15 1    
    29   14   83 1    
    30   15   16 1    
    31   15   84 1    
    32   15   85 1    
    33   16   17 1    
    34   17   18 1    
    35   17   86 1    
    36   17   87 1    
    37   18   19 1    
    38   18   37 1    
    39   18   88 1    
    40   19   20 am   BACKBONE|DICT|INTERRES
    41   19   89 1    
    42   20   21 2    
    43   20   22 1    
    44   22   23 1    
    45   22   24 1    
    46   22   90 1    
    47   23   91 1    
    48   23   92 1    
    49   23   93 1    
    50   24   25 am   BACKBONE|DICT|INTERRES
    51   24   94 1    
    52   25   26 2    
    53   25   27 1    
    54   27   28 1    
    55   27   29 1    
    56   27   95 1    
    57   28   96 1    
    58   28   97 1    
    59   28   98 1    
    60   29   30 am   BACKBONE|DICT|INTERRES
    61   29   99 1    
    62   30   31 2    
    63   30   32 1    
    64   32   33 1    
    65   32   34 1    
    66   32  100 1    
    67   33  101 1    
    68   33  102 1    
    69   33  103 1    
    70   34   35 am   BACKBONE|DICT|INTERRES
    71   34  104 1    
    72   35   36 2    
    73   37   38 2    
    74   37   39 am   BACKBONE|DICT|INTERRES
    75   39   40 1    
    76   39  105 1    
    77   40   41 1    
    78   40   42 1    
    79   40  106 1    
    80   41  107 1    
    81   41  108 1    
    82   41  109 1    
    83   42   43 2    
    84   42   44 am   BACKBONE|DICT|INTERRES
    85   44   45 1    
    86   44  110 1    
    87   45   46 1    
    88   45   47 1    
    89   45  111 1    
    90   46  112 1    
    91   46  113 1    
    92   46  114 1    
    93   47   48 2    
    94   47   49 am   BACKBONE|DICT|INTERRES
    95   49   50 1    
    96   49  115 1    
    97   50   51 1    
    98   50   52 1    
    99   50  116 1    
   100   51  117 1    
   101   51  118 1    
   102   51  119 1    
   103   52   53 2    
   104   52   54 am   BACKBONE|DICT|INTERRES
   105   54   55 1    
   106   54  120 1    
   107   55   56 1    
   108   55   57 1    
   109   55  121 1    
   110   56  122 1    
   111   56  123 1    
   112   56  124 1    
   113   57   58 2    
   114   57   59 am   BACKBONE|DICT|INTERRES
   115   59   60 1    
   116   59  125 1    
   117   60   61 1    
   118   60   62 1    
   119   60  126 1    
   120   61  127 1    
   121   61  128 1    
   122   61  129 1    
   123   62   63 2    
   124   62   64 am   BACKBONE|DICT|INTERRES
   125   64   65 1    
   126   64  130 1    
   127   65   66 1    
   128   65   69 1    
   129   65  131 1    
   130   66   67 am   BACKBONE|DICT|INTERRES
   131   66   68 2    
   132   67  132 1    
   133   67  133 1    
   134   69   70 1    
   135   69  134 1    
   136   69  135 1    
   137   70   71 1    
   138   71  136 1    
   139   71  137 1    
@<TRIPOS>SUBSTRUCTURE
     1 UNK         1 GROUP             0       ****    0 ROOT    
