@<TRIPOS>MOLECULE
3R137
137   139    1
SMALL
USER_CHARGES


@<TRIPOS>ATOM
      1 CA         24.2642   -4.6126   -7.8154 C.3       0 UNK        -0.2020 
      2 C          24.8351   -5.5191   -6.7369 C.2       0 UNK         0.4855 
      3 O          24.1974   -6.5017   -6.3578 O.2       0 UNK        -0.5197 
      4 N          26.0342   -5.1925   -6.2360 N.am      1 UNK        -0.4892 
      5 CA         26.7046   -5.9121   -5.1437 C.3       1 UNK         0.0835 
      6 C6         28.2208   -5.5985   -5.0976 C.3       12 UNK        -0.0855 
      7 S7         28.6146   -3.8324   -4.8304 S.3       12 UNK        -0.2931 
      8 C8         29.5808   -3.9345   -3.2919 C.3       12 UNK         0.0378 
      9 C9         30.0698   -2.5624   -2.8580 C.ar      12 UNK        -0.0802 
     10 C10        31.2683   -2.0474   -3.3651 C.ar      12 UNK        -0.0944 
     11 C11        31.7071   -0.7740   -2.9892 C.ar      12 UNK        -0.0787 
     12 C12        30.9425   -0.0208   -2.0947 C.ar      12 UNK        -0.0862 
     13 C13        29.7375   -0.5197   -1.5915 C.ar      12 UNK        -0.0733 
     14 C14        29.3133   -1.7992   -1.9631 C.ar      12 UNK        -0.0832 
     15 C15        28.8726    0.3488   -0.6880 C.3       12 UNK         0.0240 
     16 S16        27.3502    0.9167   -1.5202 S.3       12 UNK        -0.2522 
     17 C17        27.9813    1.5972   -3.0955 C.3       12 UNK        -0.0967 
     18 CA         27.7894    0.5875   -4.2649 C.3       5 UNK         0.0660 
     19 N          26.3761    0.3110   -4.5315 N.am      5 UNK        -0.4015 
     20 C          25.5067    1.0977   -5.1857 C.2       4 UNK         0.4946 
     21 O          25.8074    2.1635   -5.7269 O.2       4 UNK        -0.5353 
     22 CA         24.0406    0.6251   -5.2271 C.3       4 UNK         0.0277 
     23 CB         23.8073   -0.2740   -6.4525 C.3       4 UNK        -0.1981 
     24 N          23.6432   -0.0924   -4.0116 N.am      4 UNK        -0.4209 
     25 C          23.6101    0.4476   -2.7843 C.2       3 UNK         0.4942 
     26 O          23.7103    1.6575   -2.5757 O.2       3 UNK        -0.5208 
     27 CA         23.4588   -0.5019   -1.5763 C.3       3 UNK         0.0250 
     28 CB         22.1018   -0.2796   -0.8861 C.3       3 UNK        -0.1990 
     29 N          23.6219   -1.9403   -1.8375 N.am      3 UNK        -0.4232 
     30 C          24.6866   -2.5546   -2.3741 C.2       2 UNK         0.4993 
     31 O          25.6581   -1.9572   -2.8427 O.2       2 UNK        -0.5286 
     32 CA         24.6507   -4.0905   -2.4302 C.3       2 UNK         0.0209 
     33 CB         23.2263   -4.6890   -2.4414 C.3       2 UNK        -0.1931 
     34 N          25.3788   -4.5235   -3.6171 N.am      2 UNK        -0.4546 
     35 C          26.0210   -5.6859   -3.7761 C.2       1 UNK         0.5154 
     36 O          26.0763   -6.5632   -2.9124 O.2       1 UNK        -0.5181 
     37 C          28.5509    0.9411   -5.5586 C.2       5 UNK         0.5014 
     38 O          28.5744    0.1232   -6.4819 O.2       5 UNK        -0.5248 
     39 N          29.1301    2.1482   -5.6321 N.am      6 UNK        -0.4434 
     40 CA         29.9191    2.6379   -6.7642 C.3       6 UNK         0.0363 
     41 CB         30.5400    3.9975   -6.4096 C.3       6 UNK        -0.1936 
     42 C          29.1621    2.7129   -8.0994 C.2       6 UNK         0.5081 
     43 O          29.8100    2.6270   -9.1414 O.2       6 UNK        -0.5248 
     44 N          27.8248    2.8134   -8.0661 N.am      7 UNK        -0.4718 
     45 CA         26.9799    2.7578   -9.2639 C.3       7 UNK         0.0273 
     46 CB         25.5555    3.2178   -8.9144 C.3       7 UNK        -0.1935 
     47 C          26.9519    1.3651   -9.9224 C.2       7 UNK         0.5018 
     48 O          26.6459    1.2772  -11.1122 O.2       7 UNK        -0.5186 
     49 N          27.2701    0.3158   -9.1515 N.am      8 UNK        -0.4240 
     50 CA         27.3713   -1.0637   -9.6205 C.3       8 UNK         0.0235 
     51 CB         26.5944   -1.9823   -8.6625 C.3       8 UNK        -0.2000 
     52 C          28.8371   -1.5063   -9.7246 C.2       8 UNK         0.4941 
     53 O          29.2311   -2.0487  -10.7574 O.2       8 UNK        -0.5273 
     54 N          29.6100   -1.2966   -8.6507 N.am      9 UNK        -0.4262 
     55 CA         30.9629   -1.8334   -8.4964 C.3       9 UNK         0.0264 
     56 CB         31.2624   -2.0058   -6.9995 C.3       9 UNK        -0.1955 
     57 C          32.0688   -1.0042   -9.1663 C.2       9 UNK         0.5031 
     58 O          33.1299   -1.5702   -9.4338 O.2       9 UNK        -0.5390 
     59 N          31.8323    0.2984   -9.4008 N.am      10 UNK        -0.4204 
     60 CA         32.8047    1.2880   -9.8941 C.3       10 UNK         0.0237 
     61 CB         33.1495    1.0254  -11.3759 C.3       10 UNK        -0.1985 
     62 C          34.0496    1.3696   -8.9855 C.2       10 UNK         0.4970 
     63 O          35.1676    1.1125   -9.4359 O.2       10 UNK        -0.4914 
     64 N          33.8074    1.6786   -7.7042 N.am      11 UNK        -0.4285 
     65 CA         34.7830    1.6324   -6.5995 C.3       11 UNK         0.1007 
     66 C          36.0188    2.5693   -6.7420 C.2       11 UNK         0.5703 
     67 N          35.9702    3.6130   -7.5614 N.am      11 UNK        -0.7361 
     68 O          37.0374    2.3437   -6.0929 O.2       11 UNK        -0.4986 
     69 C69        34.1050    1.8629   -5.2195 C.3       12 UNK        -0.0947 
     70 S70        32.5736    0.9032   -4.9708 S.3       12 UNK        -0.2240 
     71 C71        32.9813   -0.1821   -3.5728 C.3       12 UNK         0.0194 
     72 H72        24.3254   -3.5675   -7.5150 H         1 UNK         0.0906 
     73 H73        24.8074   -4.7433   -8.7508 H         1 UNK         0.0906 
     74 H74        23.2152   -4.8454   -7.9979 H         1 UNK         0.0906 
     75 H75        26.5283   -4.3834   -6.5854 H         1 UNK         0.3140 
     76 H76        26.6063   -6.9799   -5.3538 H         1 UNK         0.1085 
     77 H77        28.6812   -5.9005   -6.0397 H         1 UNK         0.0836 
     78 H78        28.7052   -6.2098   -4.3338 H         1 UNK         0.0836 
     79 H79        28.9672   -4.3826   -2.5084 H         1 UNK         0.0731 
     80 H80        30.4323   -4.6007   -3.4402 H         1 UNK         0.0731 
     81 H81        31.8470   -2.6292   -4.0693 H         1 UNK         0.1312 
     82 H82        31.2716    0.9723   -1.8202 H         1 UNK         0.1406 
     83 H83        28.3701   -2.1790   -1.5926 H         1 UNK         0.1631 
     84 H84        29.4297    1.2200   -0.3399 H         1 UNK         0.0717 
     85 H85        28.5991   -0.2159    0.2043 H         1 UNK         0.0717 
     86 H86        29.0302    1.8643   -2.9606 H         1 UNK         0.0934 
     87 H87        27.4502    2.5288   -3.2995 H         1 UNK         0.0934 
     88 H88        28.2121   -0.3687   -3.9610 H         1 UNK         0.0739 
     89 H89        26.0271   -0.5313   -4.0814 H         1 UNK         0.3093 
     90 H90        23.4087    1.5109   -5.3198 H         1 UNK         0.0818 
     91 H91        22.7576   -0.5522   -6.5477 H         1 UNK         0.0819 
     92 H92        24.0900    0.2395   -7.3728 H         1 UNK         0.0819 
     93 H93        24.3957   -1.1905   -6.3980 H         1 UNK         0.0819 
     94 H94        23.5369   -1.0929   -4.0852 H         1 UNK         0.3041 
     95 H95        24.2460   -0.2218   -0.8732 H         1 UNK         0.0784 
     96 H96        21.9569    0.7714   -0.6313 H         1 UNK         0.0793 
     97 H97        21.2710   -0.5763   -1.5276 H         1 UNK         0.0793 
     98 H98        22.0296   -0.8452    0.0432 H         1 UNK         0.0793 
     99 H99        22.8649   -2.5270   -1.5172 H         1 UNK         0.3024 
    100 H100       25.1793   -4.4473   -1.5433 H         1 UNK         0.1171 
    101 H101       23.2562   -5.7743   -2.5407 H         1 UNK         0.0786 
    102 H102       22.6312   -4.3014   -3.2695 H         1 UNK         0.0786 
    103 H103       22.6928   -4.4776   -1.5141 H         1 UNK         0.0786 
    104 H104       25.4762   -3.8261   -4.3419 H         1 UNK         0.2977 
    105 H105       29.0293    2.7794   -4.8515 H         1 UNK         0.3127 
    106 H106       30.7289    1.9247   -6.9181 H         1 UNK         0.0770 
    107 H107       29.7759    4.7487   -6.2063 H         1 UNK         0.0814 
    108 H108       31.1555    4.3725   -7.2287 H         1 UNK         0.0814 
    109 H109       31.1836    3.9235   -5.5326 H         1 UNK         0.0814 
    110 H110       27.3491    2.8282   -7.1700 H         1 UNK         0.2983 
    111 H111       27.3909    3.4551   -9.9975 H         1 UNK         0.0947 
    112 H112       24.9374    3.2806   -9.8110 H         1 UNK         0.0806 
    113 H113       25.5564    4.2047   -8.4517 H         1 UNK         0.0806 
    114 H114       25.0627    2.5260   -8.2313 H         1 UNK         0.0806 
    115 H115       27.5444    0.4866   -8.1896 H         1 UNK         0.3000 
    116 H116       26.9254   -1.1637  -10.6126 H         1 UNK         0.0850 
    117 H117       26.6926   -3.0264   -8.9618 H         1 UNK         0.0810 
    118 H118       25.5322   -1.7393   -8.6701 H         1 UNK         0.0810 
    119 H119       26.9507   -1.8992   -7.6346 H         1 UNK         0.0810 
    120 H120       29.2079   -0.8395   -7.8320 H         1 UNK         0.3040 
    121 H121       30.9955   -2.8256   -8.9524 H         1 UNK         0.0766 
    122 H122       31.0854   -1.0860   -6.4439 H         1 UNK         0.0812 
    123 H123       32.2986   -2.3006   -6.8276 H         1 UNK         0.0812 
    124 H124       30.6341   -2.7806   -6.5651 H         1 UNK         0.0812 
    125 H125       30.9151    0.6672   -9.1818 H         1 UNK         0.3205 
    126 H126       32.3212    2.2641   -9.8424 H         1 UNK         0.0754 
    127 H127       33.8072    1.8029  -11.7662 H         1 UNK         0.0769 
    128 H128       32.2520    1.0193  -11.9944 H         1 UNK         0.0769 
    129 H129       33.6577    0.0706  -11.5148 H         1 UNK         0.0769 
    130 H130       32.8574    1.8603   -7.4224 H         1 UNK         0.2981 
    131 H131       35.1794    0.6153   -6.5979 H         1 UNK         0.0541 
    132 H132       35.1415    3.8000   -8.1020 H         1 UNK         0.3459 
    133 H133       36.7764    4.2114   -7.6476 H         1 UNK         0.3459 
    134 H134       33.8412    2.9157   -5.1020 H         1 UNK         0.0612 
    135 H135       34.8050    1.6363   -4.4133 H         1 UNK         0.0612 
    136 H136       33.6600   -0.9680   -3.9073 H         1 UNK         0.0624 
    137 H137       33.5075    0.3858   -2.8041 H         1 UNK         0.0624 
@<TRIPOS>BOND
     1    1    2 1    
     2    1   72 1    
     3    1   73 1    
     4    1   74 1    
     5    2    3 2    
     6    2    4 am   BACKBONE|DICT|INTERRES
     7    4    5 1    
     8    4   75 1    
     9    5    6 1    
    10    5   35 1    
    11    5   76 1    
    12    6    7 1    
    13    6   77 1    
    14    6   78 1    
    15    7    8 1    
    16    8    9 1    
    17    8   79 1    
    18    8   80 1    
    19    9   10 ar   
    20    9   14 ar   
    21   10   11 ar   
    22   10   81 1    
    23   11   12 ar   
    24   11   71 1    
    25   12   13 ar   
    26   12   82 1    
    27   13   14 ar   
    28   13   15 1    
    29   14   83 1    
    30   15   16 1    
    31   15   84 1    
    32   15   85 1    
    33   16   17 1    
    34   17   18 1    
    35   17   86 1    
    36   17   87 1    
    37   18   19 1    
    38   18   37 1    
    39   18   88 1    
    40   19   20 am   BACKBONE|DICT|INTERRES
    41   19   89 1    
    42   20   21 2    
    43   20   22 1    
    44   22   23 1    
    45   22   24 1    
    46   22   90 1    
    47   23   91 1    
    48   23   92 1    
    49   23   93 1    
    50   24   25 am   BACKBONE|DICT|INTERRES
    51   24   94 1    
    52   25   26 2    
    53   25   27 1    
    54   27   28 1    
    55   27   29 1    
    56   27   95 1    
    57   28   96 1    
    58   28   97 1    
    59   28   98 1    
    60   29   30 am   BACKBONE|DICT|INTERRES
    61   29   99 1    
    62   30   31 2    
    63   30   32 1    
    64   32   33 1    
    65   32   34 1    
    66   32  100 1    
    67   33  101 1    
    68   33  102 1    
    69   33  103 1    
    70   34   35 am   BACKBONE|DICT|INTERRES
    71   34  104 1    
    72   35   36 2    
    73   37   38 2    
    74   37   39 am   BACKBONE|DICT|INTERRES
    75   39   40 1    
    76   39  105 1    
    77   40   41 1    
    78   40   42 1    
    79   40  106 1    
    80   41  107 1    
    81   41  108 1    
    82   41  109 1    
    83   42   43 2    
    84   42   44 am   BACKBONE|DICT|INTERRES
    85   44   45 1    
    86   44  110 1    
    87   45   46 1    
    88   45   47 1    
    89   45  111 1    
    90   46  112 1    
    91   46  113 1    
    92   46  114 1    
    93   47   48 2    
    94   47   49 am   BACKBONE|DICT|INTERRES
    95   49   50 1    
    96   49  115 1    
    97   50   51 1    
    98   50   52 1    
    99   50  116 1    
   100   51  117 1    
   101   51  118 1    
   102   51  119 1    
   103   52   53 2    
   104   52   54 am   BACKBONE|DICT|INTERRES
   105   54   55 1    
   106   54  120 1    
   107   55   56 1    
   108   55   57 1    
   109   55  121 1    
   110   56  122 1    
   111   56  123 1    
   112   56  124 1    
   113   57   58 2    
   114   57   59 am   BACKBONE|DICT|INTERRES
   115   59   60 1    
   116   59  125 1    
   117   60   61 1    
   118   60   62 1    
   119   60  126 1    
   120   61  127 1    
   121   61  128 1    
   122   61  129 1    
   123   62   63 2    
   124   62   64 am   BACKBONE|DICT|INTERRES
   125   64   65 1    
   126   64  130 1    
   127   65   66 1    
   128   65   69 1    
   129   65  131 1    
   130   66   67 am   BACKBONE|DICT|INTERRES
   131   66   68 2    
   132   67  132 1    
   133   67  133 1    
   134   69   70 1    
   135   69  134 1    
   136   69  135 1    
   137   70   71 1    
   138   71  136 1    
   139   71  137 1    
@<TRIPOS>SUBSTRUCTURE
     1 UNK         1 GROUP             0       ****    0 ROOT    
