@<TRIPOS>MOLECULE
3R137
137   139    1
SMALL
USER_CHARGES


@<TRIPOS>ATOM
      1 CA         31.1792   -0.1005    0.3063 C.3       0 UNK        -0.2020 
      2 C          30.0327   -1.1005    0.3198 C.2       0 UNK         0.4855 
      3 O          29.4264   -1.3217    1.3677 O.2       0 UNK        -0.5197 
      4 N          29.7321   -1.7002   -0.8412 N.am      1 UNK        -0.4892 
      5 CA         28.6701   -2.6988   -1.0551 C.3       1 UNK         0.0835 
      6 C6         28.9056   -4.0052   -0.2379 C.3       12 UNK        -0.0855 
      7 S7         28.5406   -5.5353   -1.1678 S.3       12 UNK        -0.2931 
      8 C8         30.1208   -5.8573   -2.0273 C.3       12 UNK         0.0378 
      9 C9         30.2655   -4.9544   -3.2428 C.ar      12 UNK        -0.0802 
     10 C10        31.0056   -3.7707   -3.1647 C.ar      12 UNK        -0.0944 
     11 C11        31.0094   -2.8596   -4.2261 C.ar      12 UNK        -0.0787 
     12 C12        30.3066   -3.1789   -5.3945 C.ar      12 UNK        -0.0862 
     13 C13        29.6164   -4.3898   -5.5106 C.ar      12 UNK        -0.0733 
     14 C14        29.5998   -5.2735   -4.4288 C.ar      12 UNK        -0.0832 
     15 C15        28.8947   -4.7419   -6.8062 C.3       12 UNK         0.0240 
     16 S16        27.1154   -5.0869   -6.5880 S.3       12 UNK        -0.2522 
     17 C17        26.4684   -3.5422   -5.8651 C.3       12 UNK        -0.0967 
     18 CA         26.2851   -2.4084   -6.9136 C.3       5 UNK         0.0660 
     19 N          25.0005   -1.7147   -6.7705 N.am      5 UNK        -0.4015 
     20 C          24.5310   -0.7521   -7.5814 C.2       4 UNK         0.4946 
     21 O          25.1637   -0.2825   -8.5253 O.2       4 UNK        -0.5353 
     22 CA         23.1143   -0.2166   -7.3074 C.3       4 UNK         0.0277 
     23 CB         22.1057   -0.8572   -8.2746 C.3       4 UNK        -0.1981 
     24 N          22.6822   -0.4520   -5.9292 N.am      4 UNK        -0.4209 
     25 C          23.1217    0.2513   -4.8781 C.2       3 UNK         0.4942 
     26 O          23.8097    1.2697   -4.9831 O.2       3 UNK        -0.5208 
     27 CA         22.7431   -0.2774   -3.4788 C.3       3 UNK         0.0250 
     28 CB         22.3560   -1.7750   -3.4583 C.3       3 UNK        -0.1990 
     29 N          23.7905   -0.0240   -2.4830 N.am      3 UNK        -0.4232 
     30 C          25.0816   -0.3872   -2.5399 C.2       2 UNK         0.4993 
     31 O          25.5979   -0.9842   -3.4931 O.2       2 UNK        -0.5286 
     32 CA         25.9514    0.0362   -1.3380 C.3       2 UNK         0.0209 
     33 CB         25.1844    0.0912    0.0042 C.3       2 UNK        -0.1931 
     34 N          27.1591   -0.7847   -1.2142 N.am      2 UNK        -0.4546 
     35 C          27.2496   -2.0975   -0.9444 C.2       1 UNK         0.5154 
     36 O          26.2895   -2.8122   -0.6507 O.2       1 UNK        -0.5181 
     37 C          27.4746   -1.4347   -6.8891 C.2       5 UNK         0.5014 
     38 O          28.2876   -1.4441   -7.8150 O.2       5 UNK        -0.5248 
     39 N          27.5341   -0.5925   -5.8464 N.am      6 UNK        -0.4434 
     40 CA         28.5909    0.4056   -5.6637 C.3       6 UNK         0.0363 
     41 CB         28.4363    1.0777   -4.2921 C.3       6 UNK        -0.1936 
     42 C          28.6483    1.4549   -6.7859 C.2       6 UNK         0.5081 
     43 O          29.7424    1.8908   -7.1453 O.2       6 UNK        -0.5248 
     44 N          27.4804    1.8167   -7.3337 N.am      7 UNK        -0.4718 
     45 CA         27.3501    2.7188   -8.4768 C.3       7 UNK         0.0273 
     46 CB         25.9074    3.2433   -8.5628 C.3       7 UNK        -0.1935 
     47 C          27.7735    2.0451   -9.7913 C.2       7 UNK         0.5018 
     48 O          28.5446    2.6370  -10.5460 O.2       7 UNK        -0.5186 
     49 N          27.2824    0.8203  -10.0322 N.am      8 UNK        -0.4240 
     50 CA         27.5597    0.0216  -11.2296 C.3       8 UNK         0.0235 
     51 CB         26.6611   -1.2259  -11.2398 C.3       8 UNK        -0.2000 
     52 C          29.0366   -0.3772  -11.3660 C.2       8 UNK         0.4941 
     53 O          29.5896   -0.2764  -12.4619 O.2       8 UNK        -0.5273 
     54 N          29.6529   -0.8031  -10.2552 N.am      9 UNK        -0.4262 
     55 CA         31.0764   -1.1448  -10.1880 C.3       9 UNK         0.0264 
     56 CB         31.3108   -2.0644   -8.9827 C.3       9 UNK        -0.1955 
     57 C          31.9955    0.0871  -10.0988 C.2       9 UNK         0.5031 
     58 O          33.1987   -0.0585  -10.3200 O.2       9 UNK        -0.5390 
     59 N          31.4252    1.2566   -9.7678 N.am      10 UNK        -0.4204 
     60 CA         32.0884    2.5423   -9.5287 C.3       10 UNK         0.0237 
     61 CB         32.7053    3.0980  -10.8301 C.3       10 UNK        -0.1985 
     62 C          33.0899    2.4602   -8.3614 C.2       10 UNK         0.4970 
     63 O          34.2645    2.7977   -8.5237 O.2       10 UNK        -0.4914 
     64 N          32.5987    1.9965   -7.2051 N.am      11 UNK        -0.4285 
     65 CA         33.3766    1.8535   -5.9632 C.3       11 UNK         0.1007 
     66 C          33.7673    3.2024   -5.2898 C.2       11 UNK         0.5703 
     67 N          33.1430    4.3242   -5.6306 N.am      11 UNK        -0.7361 
     68 O          34.6591    3.2299   -4.4449 O.2       11 UNK        -0.4986 
     69 C69        32.6707    0.9260   -4.9404 C.3       12 UNK        -0.0947 
     70 S70        32.4072   -0.7728   -5.5468 S.3       12 UNK        -0.2240 
     71 C71        31.6930   -1.5054   -4.0373 C.3       12 UNK         0.0194 
     72 H72        31.6256    0.0004   -0.6829 H         1 UNK         0.0906 
     73 H73        30.8243    0.8811    0.6196 H         1 UNK         0.0906 
     74 H74        31.9594   -0.4166    0.9985 H         1 UNK         0.0906 
     75 H75        30.2742   -1.4717   -1.6610 H         1 UNK         0.3140 
     76 H76        28.7310   -2.9495   -2.1131 H         1 UNK         0.1085 
     77 H77        29.9440   -4.0681    0.0906 H         1 UNK         0.0836 
     78 H78        28.3208   -4.0010    0.6838 H         1 UNK         0.0836 
     79 H79        30.9582   -5.7283   -1.3398 H         1 UNK         0.0731 
     80 H80        30.1448   -6.9011   -2.3440 H         1 UNK         0.0731 
     81 H81        31.5203   -3.5280   -2.2449 H         1 UNK         0.1312 
     82 H82        30.2825   -2.4784   -6.2142 H         1 UNK         0.1406 
     83 H83        29.0356   -6.1941   -4.4979 H         1 UNK         0.1631 
     84 H84        29.3665   -5.6275   -7.2337 H         1 UNK         0.0717 
     85 H85        29.0143   -3.9543   -7.5494 H         1 UNK         0.0717 
     86 H86        27.0853   -3.2429   -5.0144 H         1 UNK         0.0934 
     87 H87        25.5063   -3.8059   -5.4231 H         1 UNK         0.0934 
     88 H88        26.2619   -2.8512   -7.9118 H         1 UNK         0.0739 
     89 H89        24.4255   -1.9998   -5.9930 H         1 UNK         0.3093 
     90 H90        23.1285    0.8597   -7.4937 H         1 UNK         0.0818 
     91 H91        21.1068   -0.4424   -8.1386 H         1 UNK         0.0819 
     92 H92        22.3917   -0.6742   -9.3116 H         1 UNK         0.0819 
     93 H93        22.0433   -1.9378   -8.1404 H         1 UNK         0.0819 
     94 H94        22.0880   -1.2521   -5.7640 H         1 UNK         0.3041 
     95 H95        21.8719    0.2986   -3.1631 H         1 UNK         0.0784 
     96 H96        21.4622   -1.9707   -4.0517 H         1 UNK         0.0793 
     97 H97        23.1589   -2.4093   -3.8364 H         1 UNK         0.0793 
     98 H98        22.1325   -2.1050   -2.4435 H         1 UNK         0.0793 
     99 H99        23.4931    0.5039   -1.6749 H         1 UNK         0.3024 
    100 H100       26.2970    1.0465   -1.5634 H         1 UNK         0.1171 
    101 H101       25.8609    0.2929    0.8351 H         1 UNK         0.0786 
    102 H102       24.6698   -0.8464    0.2182 H         1 UNK         0.0786 
    103 H103       24.4382    0.8862    0.0084 H         1 UNK         0.0786 
    104 H104       28.0237   -0.3122   -1.4316 H         1 UNK         0.2977 
    105 H105       26.8235   -0.6574   -5.1219 H         1 UNK         0.3127 
    106 H106       29.5432   -0.1245   -5.6778 H         1 UNK         0.0770 
    107 H107       27.4680    1.5696   -4.1914 H         1 UNK         0.0814 
    108 H108       29.2068    1.8342   -4.1368 H         1 UNK         0.0814 
    109 H109       28.5306    0.3495   -3.4882 H         1 UNK         0.0814 
    110 H110       26.6355    1.3780   -6.9962 H         1 UNK         0.2983 
    111 H111       28.0108    3.5738   -8.3147 H         1 UNK         0.0947 
    112 H112       25.7954    3.9374   -9.3969 H         1 UNK         0.0806 
    113 H113       25.6265    3.7795   -7.6561 H         1 UNK         0.0806 
    114 H114       25.1874    2.4379   -8.7111 H         1 UNK         0.0806 
    115 H115       26.6243    0.4168   -9.3663 H         1 UNK         0.3000 
    116 H116       27.3027    0.6324  -12.0976 H         1 UNK         0.0850 
    117 H117       26.8447   -1.8350  -12.1258 H         1 UNK         0.0810 
    118 H118       25.6057   -0.9529  -11.2466 H         1 UNK         0.0810 
    119 H119       26.8363   -1.8552  -10.3660 H         1 UNK         0.0810 
    120 H120       29.1131   -0.9085   -9.3962 H         1 UNK         0.3040 
    121 H121       31.3485   -1.6939  -11.0920 H         1 UNK         0.0766 
    122 H122       32.3539   -2.3772   -8.9197 H         1 UNK         0.0812 
    123 H123       31.0682   -1.5488   -8.0554 H         1 UNK         0.0812 
    124 H124       30.7014   -2.9657   -9.0420 H         1 UNK         0.0812 
    125 H125       30.4278    1.2536   -9.6013 H         1 UNK         0.3205 
    126 H126       31.3054    3.2351   -9.2158 H         1 UNK         0.0754 
    127 H127       33.1092    4.0989  -10.6729 H         1 UNK         0.0769 
    128 H128       31.9581    3.1703  -11.6205 H         1 UNK         0.0769 
    129 H129       33.5205    2.4727  -11.1955 H         1 UNK         0.0769 
    130 H130       31.6044    1.7887   -7.1456 H         1 UNK         0.2981 
    131 H131       34.3202    1.3755   -6.2336 H         1 UNK         0.0541 
    132 H132       32.4052    4.3100   -6.3159 H         1 UNK         0.3459 
    133 H133       33.4088    5.1907   -5.1903 H         1 UNK         0.3459 
    134 H134       31.7042    1.3470   -4.6577 H         1 UNK         0.0612 
    135 H135       33.2572    0.8556   -4.0221 H         1 UNK         0.0612 
    136 H136       32.4881   -1.5853   -3.2943 H         1 UNK         0.0624 
    137 H137       30.9540   -0.8139   -3.6321 H         1 UNK         0.0624 
@<TRIPOS>BOND
     1    1    2 1    
     2    1   72 1    
     3    1   73 1    
     4    1   74 1    
     5    2    3 2    
     6    2    4 am   BACKBONE|DICT|INTERRES
     7    4    5 1    
     8    4   75 1    
     9    5    6 1    
    10    5   35 1    
    11    5   76 1    
    12    6    7 1    
    13    6   77 1    
    14    6   78 1    
    15    7    8 1    
    16    8    9 1    
    17    8   79 1    
    18    8   80 1    
    19    9   10 ar   
    20    9   14 ar   
    21   10   11 ar   
    22   10   81 1    
    23   11   12 ar   
    24   11   71 1    
    25   12   13 ar   
    26   12   82 1    
    27   13   14 ar   
    28   13   15 1    
    29   14   83 1    
    30   15   16 1    
    31   15   84 1    
    32   15   85 1    
    33   16   17 1    
    34   17   18 1    
    35   17   86 1    
    36   17   87 1    
    37   18   19 1    
    38   18   37 1    
    39   18   88 1    
    40   19   20 am   BACKBONE|DICT|INTERRES
    41   19   89 1    
    42   20   21 2    
    43   20   22 1    
    44   22   23 1    
    45   22   24 1    
    46   22   90 1    
    47   23   91 1    
    48   23   92 1    
    49   23   93 1    
    50   24   25 am   BACKBONE|DICT|INTERRES
    51   24   94 1    
    52   25   26 2    
    53   25   27 1    
    54   27   28 1    
    55   27   29 1    
    56   27   95 1    
    57   28   96 1    
    58   28   97 1    
    59   28   98 1    
    60   29   30 am   BACKBONE|DICT|INTERRES
    61   29   99 1    
    62   30   31 2    
    63   30   32 1    
    64   32   33 1    
    65   32   34 1    
    66   32  100 1    
    67   33  101 1    
    68   33  102 1    
    69   33  103 1    
    70   34   35 am   BACKBONE|DICT|INTERRES
    71   34  104 1    
    72   35   36 2    
    73   37   38 2    
    74   37   39 am   BACKBONE|DICT|INTERRES
    75   39   40 1    
    76   39  105 1    
    77   40   41 1    
    78   40   42 1    
    79   40  106 1    
    80   41  107 1    
    81   41  108 1    
    82   41  109 1    
    83   42   43 2    
    84   42   44 am   BACKBONE|DICT|INTERRES
    85   44   45 1    
    86   44  110 1    
    87   45   46 1    
    88   45   47 1    
    89   45  111 1    
    90   46  112 1    
    91   46  113 1    
    92   46  114 1    
    93   47   48 2    
    94   47   49 am   BACKBONE|DICT|INTERRES
    95   49   50 1    
    96   49  115 1    
    97   50   51 1    
    98   50   52 1    
    99   50  116 1    
   100   51  117 1    
   101   51  118 1    
   102   51  119 1    
   103   52   53 2    
   104   52   54 am   BACKBONE|DICT|INTERRES
   105   54   55 1    
   106   54  120 1    
   107   55   56 1    
   108   55   57 1    
   109   55  121 1    
   110   56  122 1    
   111   56  123 1    
   112   56  124 1    
   113   57   58 2    
   114   57   59 am   BACKBONE|DICT|INTERRES
   115   59   60 1    
   116   59  125 1    
   117   60   61 1    
   118   60   62 1    
   119   60  126 1    
   120   61  127 1    
   121   61  128 1    
   122   61  129 1    
   123   62   63 2    
   124   62   64 am   BACKBONE|DICT|INTERRES
   125   64   65 1    
   126   64  130 1    
   127   65   66 1    
   128   65   69 1    
   129   65  131 1    
   130   66   67 am   BACKBONE|DICT|INTERRES
   131   66   68 2    
   132   67  132 1    
   133   67  133 1    
   134   69   70 1    
   135   69  134 1    
   136   69  135 1    
   137   70   71 1    
   138   71  136 1    
   139   71  137 1    
@<TRIPOS>SUBSTRUCTURE
     1 UNK         1 GROUP             0       ****    0 ROOT    
