@<TRIPOS>MOLECULE
3R137
137   139    1
SMALL
USER_CHARGES


@<TRIPOS>ATOM
      1 CA         22.7547   -4.8841   -3.6175 C.3       0 UNK        -0.2020 
      2 C          23.5780   -4.3205   -2.4698 C.2       0 UNK         0.4855 
      3 O          23.1243   -3.4071   -1.7796 O.2       0 UNK        -0.5197 
      4 N          24.7918   -4.8491   -2.2707 N.am      1 UNK        -0.4892 
      5 CA         25.7744   -4.4248   -1.2668 C.3       1 UNK         0.0835 
      6 C6         27.0221   -5.3543   -1.2287 C.3       12 UNK        -0.0855 
      7 S7         27.5812   -5.9818   -2.8575 S.3       12 UNK        -0.2931 
      8 C8         29.3928   -5.9804   -2.6833 C.3       12 UNK         0.0378 
      9 C9         30.0047   -4.6735   -3.1638 C.ar      12 UNK        -0.0802 
     10 C10        30.2616   -4.4848   -4.5264 C.ar      12 UNK        -0.0944 
     11 C11        30.8362   -3.2956   -4.9850 C.ar      12 UNK        -0.0787 
     12 C12        31.1672   -2.3045   -4.0592 C.ar      12 UNK        -0.0862 
     13 C13        30.8971   -2.4644   -2.6978 C.ar      12 UNK        -0.0733 
     14 C14        30.3201   -3.6587   -2.2546 C.ar      12 UNK        -0.0832 
     15 C15        31.2188   -1.3500   -1.7038 C.3       12 UNK         0.0240 
     16 S16        30.7779    0.3224   -2.3022 S.3       12 UNK        -0.2522 
     17 C17        29.0023    0.1268   -2.6640 C.3       12 UNK        -0.0967 
     18 CA         28.6960    0.0986   -4.1876 C.3       5 UNK         0.0660 
     19 N          27.6040   -0.8280   -4.5001 N.am      5 UNK        -0.4015 
     20 C          27.1424   -1.1201   -5.7245 C.2       4 UNK         0.4946 
     21 O          27.6209   -0.6823   -6.7683 O.2       4 UNK        -0.5353 
     22 CA         25.8837   -1.9979   -5.7937 C.3       4 UNK         0.0277 
     23 CB         26.2385   -3.4890   -5.6755 C.3       4 UNK        -0.1981 
     24 N          24.9116   -1.6191   -4.7651 N.am      4 UNK        -0.4209 
     25 C          24.2339   -0.4604   -4.7675 C.2       3 UNK         0.4942 
     26 O          24.2948    0.3649   -5.6775 O.2       3 UNK        -0.5208 
     27 CA         23.3939   -0.1371   -3.5220 C.3       3 UNK         0.0250 
     28 CB         21.9912   -0.7552   -3.6272 C.3       3 UNK        -0.1990 
     29 N          24.0496   -0.5705   -2.2853 N.am      3 UNK        -0.4232 
     30 C          25.1577    0.0076   -1.7950 C.2       2 UNK         0.4993 
     31 O          25.6996    0.9848   -2.3119 O.2       2 UNK        -0.5286 
     32 CA         25.8035   -0.6331   -0.5528 C.3       2 UNK         0.0209 
     33 CB         25.2192   -0.0224    0.7305 C.3       2 UNK        -0.1931 
     34 N          25.6706   -2.0928   -0.5048 N.am      2 UNK        -0.4546 
     35 C          26.1394   -2.9361   -1.4359 C.2       1 UNK         0.5154 
     36 O          26.7719   -2.5664   -2.4250 O.2       1 UNK        -0.5181 
     37 C          28.4573    1.5149   -4.7488 C.2       5 UNK         0.5014 
     38 O          29.3759    2.1076   -5.3163 O.2       5 UNK        -0.5248 
     39 N          27.2259    2.0213   -4.5971 N.am      6 UNK        -0.4434 
     40 CA         26.7869    3.2981   -5.1570 C.3       6 UNK         0.0363 
     41 CB         25.4568    3.7098   -4.5051 C.3       6 UNK        -0.1936 
     42 C          26.6543    3.2692   -6.6905 C.2       6 UNK         0.5081 
     43 O          27.0631    4.2281   -7.3463 O.2       6 UNK        -0.5248 
     44 N          26.0565    2.1990   -7.2318 N.am      7 UNK        -0.4718 
     45 CA         25.7252    2.0777   -8.6528 C.3       7 UNK         0.0273 
     46 CB         24.6330    1.0112   -8.8349 C.3       7 UNK        -0.1935 
     47 C          26.9253    1.7675   -9.5612 C.2       7 UNK         0.5018 
     48 O          27.0255    2.3587  -10.6379 O.2       7 UNK        -0.5186 
     49 N          27.7779    0.8159   -9.1592 N.am      8 UNK        -0.4240 
     50 CA         28.8470    0.2813  -10.0014 C.3       8 UNK         0.0235 
     51 CB         29.2229   -1.1316   -9.5283 C.3       8 UNK        -0.2000 
     52 C          30.0759    1.1987  -10.0102 C.2       8 UNK         0.4941 
     53 O          30.8401    1.2148   -9.0421 O.2       8 UNK        -0.5273 
     54 N          30.2946    1.8834  -11.1410 N.am      9 UNK        -0.4262 
     55 CA         31.4841    2.7000  -11.4164 C.3       9 UNK         0.0264 
     56 CB         31.2807    3.4582  -12.7383 C.3       9 UNK        -0.1955 
     57 C          32.8017    1.8979  -11.4498 C.2       9 UNK         0.5031 
     58 O          33.8696    2.4907  -11.2931 O.2       9 UNK        -0.5390 
     59 N          32.7053    0.5721  -11.6332 N.am      10 UNK        -0.4204 
     60 CA         33.8094   -0.3812  -11.5135 C.3       10 UNK         0.0237 
     61 CB         33.3472   -1.7622  -12.0066 C.3       10 UNK        -0.1985 
     62 C          34.3684   -0.4792  -10.0818 C.2       10 UNK         0.4970 
     63 O          35.5786   -0.6526   -9.9306 O.2       10 UNK        -0.4914 
     64 N          33.4963   -0.3549   -9.0708 N.am      11 UNK        -0.4285 
     65 CA         33.8927   -0.2356   -7.6606 C.3       11 UNK         0.1007 
     66 C          34.0884    1.2495   -7.2574 C.2       11 UNK         0.5703 
     67 N          33.2057    2.1531   -7.6675 N.am      11 UNK        -0.7361 
     68 O          35.0519    1.5842   -6.5725 O.2       11 UNK        -0.4986 
     69 C69        32.9022   -0.9300   -6.6925 C.3       12 UNK        -0.0947 
     70 S70        32.7524   -2.7298   -6.9675 S.3       12 UNK        -0.2240 
     71 C71        31.0227   -3.0552   -6.4800 C.3       12 UNK         0.0194 
     72 H72        21.7521   -5.1351   -3.2722 H         1 UNK         0.0906 
     73 H73        22.6668   -4.1480   -4.4158 H         1 UNK         0.0906 
     74 H74        23.2032   -5.7856   -4.0347 H         1 UNK         0.0906 
     75 H75        25.1300   -5.5719   -2.8919 H         1 UNK         0.3140 
     76 H76        25.2821   -4.5240   -0.2968 H         1 UNK         0.1085 
     77 H77        26.7859   -6.2322   -0.6253 H         1 UNK         0.0836 
     78 H78        27.8515   -4.8694   -0.7105 H         1 UNK         0.0836 
     79 H79        29.7978   -6.8048   -3.2722 H         1 UNK         0.0731 
     80 H80        29.6735   -6.1870   -1.6493 H         1 UNK         0.0731 
     81 H81        29.9940   -5.2607   -5.2306 H         1 UNK         0.1312 
     82 H82        31.5971   -1.3772   -4.3991 H         1 UNK         0.1406 
     83 H83        30.1119   -3.7981   -1.2028 H         1 UNK         0.1631 
     84 H84        32.2871   -1.3738   -1.4856 H         1 UNK         0.0717 
     85 H85        30.7051   -1.5222   -0.7567 H         1 UNK         0.0717 
     86 H86        28.6731   -0.7990   -2.1924 H         1 UNK         0.0934 
     87 H87        28.4494    0.9173   -2.1526 H         1 UNK         0.0934 
     88 H88        29.5600   -0.2920   -4.7238 H         1 UNK         0.0739 
     89 H89        27.1929   -1.3221   -3.7108 H         1 UNK         0.3093 
     90 H90        25.4200   -1.8390   -6.7696 H         1 UNK         0.0818 
     91 H91        26.9100   -3.7901   -6.4805 H         1 UNK         0.0819 
     92 H92        26.7435   -3.7181   -4.7374 H         1 UNK         0.0819 
     93 H93        25.3504   -4.1173   -5.7415 H         1 UNK         0.0819 
     94 H94        24.8623   -2.2074   -3.9462 H         1 UNK         0.3041 
     95 H95        23.2775    0.9482   -3.4771 H         1 UNK         0.0784 
     96 H96        21.4719   -0.3881   -4.5135 H         1 UNK         0.0793 
     97 H97        22.0272   -1.8415   -3.6999 H         1 UNK         0.0793 
     98 H98        21.3785   -0.4976   -2.7631 H         1 UNK         0.0793 
     99 H99        23.6830   -1.4036   -1.8348 H         1 UNK         0.3024 
    100 H100       26.8692   -0.4000   -0.5841 H         1 UNK         0.1171 
    101 H101       25.7331   -0.3939    1.6173 H         1 UNK         0.0786 
    102 H102       25.3253    1.0635    0.7286 H         1 UNK         0.0786 
    103 H103       24.1570   -0.2459    0.8380 H         1 UNK         0.0786 
    104 H104       25.1214   -2.4679    0.2557 H         1 UNK         0.2977 
    105 H105       26.5510    1.5054   -4.0394 H         1 UNK         0.3127 
    106 H106       27.5347    4.0524   -4.9026 H         1 UNK         0.0770 
    107 H107       24.6675    2.9835   -4.7032 H         1 UNK         0.0814 
    108 H108       25.1174    4.6739   -4.8859 H         1 UNK         0.0814 
    109 H109       25.5582    3.8044   -3.4238 H         1 UNK         0.0814 
    110 H110       25.7087    1.4672   -6.6194 H         1 UNK         0.2983 
    111 H111       25.3100    3.0328   -8.9830 H         1 UNK         0.0947 
    112 H112       24.9633    0.0327   -8.4843 H         1 UNK         0.0806 
    113 H113       24.3565    0.9072   -9.8850 H         1 UNK         0.0806 
    114 H114       23.7281    1.2738   -8.2866 H         1 UNK         0.0806 
    115 H115       27.6614    0.3848   -8.2421 H         1 UNK         0.3000 
    116 H116       28.4690    0.1859  -11.0219 H         1 UNK         0.0850 
    117 H117       29.9852   -1.5747  -10.1701 H         1 UNK         0.0810 
    118 H118       28.3600   -1.7978   -9.5348 H         1 UNK         0.0810 
    119 H119       29.6204   -1.1114   -8.5157 H         1 UNK         0.0810 
    120 H120       29.5992    1.8382  -11.8733 H         1 UNK         0.3040 
    121 H121       31.5748    3.4318  -10.6109 H         1 UNK         0.0766 
    122 H122       30.3993    4.0987  -12.6977 H         1 UNK         0.0812 
    123 H123       31.1640    2.7767  -13.5819 H         1 UNK         0.0812 
    124 H124       32.1352    4.1011  -12.9550 H         1 UNK         0.0812 
    125 H125       31.7871    0.1860  -11.7931 H         1 UNK         0.3205 
    126 H126       34.6184   -0.0379  -12.1620 H         1 UNK         0.0754 
    127 H127       34.1613   -2.4867  -11.9532 H         1 UNK         0.0769 
    128 H128       33.0183   -1.7241  -13.0454 H         1 UNK         0.0769 
    129 H129       32.5245   -2.1531  -11.4062 H         1 UNK         0.0769 
    130 H130       32.5267   -0.1492   -9.2710 H         1 UNK         0.2981 
    131 H131       34.8577   -0.7272   -7.5213 H         1 UNK         0.0541 
    132 H132       33.3319    3.1182   -7.4103 H         1 UNK         0.3459 
    133 H133       32.3746    1.8681   -8.1793 H         1 UNK         0.3459 
    134 H134       33.2485   -0.7865   -5.6682 H         1 UNK         0.0612 
    135 H135       31.9168   -0.4645   -6.7613 H         1 UNK         0.0612 
    136 H136       30.3865   -2.2229   -6.7749 H         1 UNK         0.0624 
    137 H137       30.6721   -3.9185   -7.0474 H         1 UNK         0.0624 
@<TRIPOS>BOND
     1    1    2 1    
     2    1   72 1    
     3    1   73 1    
     4    1   74 1    
     5    2    3 2    
     6    2    4 am   BACKBONE|DICT|INTERRES
     7    4    5 1    
     8    4   75 1    
     9    5    6 1    
    10    5   35 1    
    11    5   76 1    
    12    6    7 1    
    13    6   77 1    
    14    6   78 1    
    15    7    8 1    
    16    8    9 1    
    17    8   79 1    
    18    8   80 1    
    19    9   10 ar   
    20    9   14 ar   
    21   10   11 ar   
    22   10   81 1    
    23   11   12 ar   
    24   11   71 1    
    25   12   13 ar   
    26   12   82 1    
    27   13   14 ar   
    28   13   15 1    
    29   14   83 1    
    30   15   16 1    
    31   15   84 1    
    32   15   85 1    
    33   16   17 1    
    34   17   18 1    
    35   17   86 1    
    36   17   87 1    
    37   18   19 1    
    38   18   37 1    
    39   18   88 1    
    40   19   20 am   BACKBONE|DICT|INTERRES
    41   19   89 1    
    42   20   21 2    
    43   20   22 1    
    44   22   23 1    
    45   22   24 1    
    46   22   90 1    
    47   23   91 1    
    48   23   92 1    
    49   23   93 1    
    50   24   25 am   BACKBONE|DICT|INTERRES
    51   24   94 1    
    52   25   26 2    
    53   25   27 1    
    54   27   28 1    
    55   27   29 1    
    56   27   95 1    
    57   28   96 1    
    58   28   97 1    
    59   28   98 1    
    60   29   30 am   BACKBONE|DICT|INTERRES
    61   29   99 1    
    62   30   31 2    
    63   30   32 1    
    64   32   33 1    
    65   32   34 1    
    66   32  100 1    
    67   33  101 1    
    68   33  102 1    
    69   33  103 1    
    70   34   35 am   BACKBONE|DICT|INTERRES
    71   34  104 1    
    72   35   36 2    
    73   37   38 2    
    74   37   39 am   BACKBONE|DICT|INTERRES
    75   39   40 1    
    76   39  105 1    
    77   40   41 1    
    78   40   42 1    
    79   40  106 1    
    80   41  107 1    
    81   41  108 1    
    82   41  109 1    
    83   42   43 2    
    84   42   44 am   BACKBONE|DICT|INTERRES
    85   44   45 1    
    86   44  110 1    
    87   45   46 1    
    88   45   47 1    
    89   45  111 1    
    90   46  112 1    
    91   46  113 1    
    92   46  114 1    
    93   47   48 2    
    94   47   49 am   BACKBONE|DICT|INTERRES
    95   49   50 1    
    96   49  115 1    
    97   50   51 1    
    98   50   52 1    
    99   50  116 1    
   100   51  117 1    
   101   51  118 1    
   102   51  119 1    
   103   52   53 2    
   104   52   54 am   BACKBONE|DICT|INTERRES
   105   54   55 1    
   106   54  120 1    
   107   55   56 1    
   108   55   57 1    
   109   55  121 1    
   110   56  122 1    
   111   56  123 1    
   112   56  124 1    
   113   57   58 2    
   114   57   59 am   BACKBONE|DICT|INTERRES
   115   59   60 1    
   116   59  125 1    
   117   60   61 1    
   118   60   62 1    
   119   60  126 1    
   120   61  127 1    
   121   61  128 1    
   122   61  129 1    
   123   62   63 2    
   124   62   64 am   BACKBONE|DICT|INTERRES
   125   64   65 1    
   126   64  130 1    
   127   65   66 1    
   128   65   69 1    
   129   65  131 1    
   130   66   67 am   BACKBONE|DICT|INTERRES
   131   66   68 2    
   132   67  132 1    
   133   67  133 1    
   134   69   70 1    
   135   69  134 1    
   136   69  135 1    
   137   70   71 1    
   138   71  136 1    
   139   71  137 1    
@<TRIPOS>SUBSTRUCTURE
     1 UNK         1 GROUP             0       ****    0 ROOT    
