@<TRIPOS>MOLECULE
3R137
137   139    1
SMALL
USER_CHARGES


@<TRIPOS>ATOM
      1 CA         30.3958    1.2754   -3.4222 C.3       0 UNK        -0.2020 
      2 C          29.4487    0.4933   -2.5248 C.2       0 UNK         0.4855 
      3 O          28.8677    1.0682   -1.6049 O.2       0 UNK        -0.5197 
      4 N          29.2763   -0.8085   -2.7918 N.am      1 UNK        -0.4892 
      5 CA         28.4984   -1.7927   -2.0180 C.3       1 UNK         0.0835 
      6 C6         28.9977   -1.9230   -0.5503 C.3       12 UNK        -0.0855 
      7 S7         28.6939   -3.5675    0.1833 S.3       12 UNK        -0.2931 
      8 C8         30.2425   -4.4507   -0.2088 C.3       12 UNK         0.0378 
      9 C9         30.4353   -4.6017   -1.7110 C.ar      12 UNK        -0.0802 
     10 C10        31.4640   -3.9182   -2.3679 C.ar      12 UNK        -0.0944 
     11 C11        31.5966   -4.0070   -3.7569 C.ar      12 UNK        -0.0787 
     12 C12        30.6915   -4.7788   -4.4896 C.ar      12 UNK        -0.0862 
     13 C13        29.6556   -5.4589   -3.8441 C.ar      12 UNK        -0.0733 
     14 C14        29.5473   -5.3872   -2.4528 C.ar      12 UNK        -0.0832 
     15 C15        28.6284   -6.2396   -4.6499 C.3       12 UNK         0.0240 
     16 S16        27.0168   -5.3897   -4.6676 S.3       12 UNK        -0.2522 
     17 C17        27.4048   -3.8328   -5.5431 C.3       12 UNK        -0.0967 
     18 CA         26.3942   -3.5317   -6.6806 C.3       5 UNK         0.0660 
     19 N          25.0526   -3.3088   -6.1417 N.am      5 UNK        -0.4015 
     20 C          23.9732   -4.0655   -6.3753 C.2       4 UNK         0.4946 
     21 O          23.9762   -5.0606   -7.1025 O.2       4 UNK        -0.5353 
     22 CA         22.6592   -3.6680   -5.6719 C.3       4 UNK         0.0277 
     23 CB         22.4063   -4.5819   -4.4612 C.3       4 UNK        -0.1981 
     24 N          22.6374   -2.2739   -5.2249 N.am      4 UNK        -0.4209 
     25 C          22.5336   -1.2132   -6.0366 C.2       3 UNK         0.4942 
     26 O          22.3030   -1.3015   -7.2432 O.2       3 UNK        -0.5208 
     27 CA         22.7234    0.1841   -5.4113 C.3       3 UNK         0.0250 
     28 CB         21.3776    0.9250   -5.3362 C.3       3 UNK        -0.1990 
     29 N          23.3564    0.2138   -4.0835 N.am      3 UNK        -0.4232 
     30 C          24.5833   -0.2393   -3.7871 C.2       2 UNK         0.4993 
     31 O          25.2944   -0.8352   -4.5987 O.2       2 UNK        -0.5286 
     32 CA         25.0857    0.0474   -2.3565 C.3       2 UNK         0.0209 
     33 CB         24.1421   -0.5368   -1.2816 C.3       2 UNK        -0.1931 
     34 N          26.4730   -0.3857   -2.1325 N.am      2 UNK        -0.4546 
     35 C          26.9626   -1.6336   -2.1179 C.2       1 UNK         0.5154 
     36 O          26.2625   -2.6433   -2.2053 O.2       1 UNK        -0.5181 
     37 C          26.8066   -2.2997   -7.5135 C.2       5 UNK         0.5014 
     38 O          26.0107   -1.3757   -7.7041 O.2       5 UNK        -0.5248 
     39 N          28.0533   -2.2937   -8.0071 N.am      6 UNK        -0.4434 
     40 CA         28.6521   -1.2453   -8.8440 C.3       6 UNK         0.0363 
     41 CB         29.8879   -1.8289   -9.5549 C.3       6 UNK        -0.1936 
     42 C          28.9817    0.0637   -8.0911 C.2       6 UNK         0.5081 
     43 O          30.0331    0.6624   -8.3295 O.2       6 UNK        -0.5248 
     44 N          28.0784    0.5185   -7.2132 N.am      7 UNK        -0.4718 
     45 CA         28.2065    1.7596   -6.4436 C.3       7 UNK         0.0273 
     46 CB         27.1255    1.8167   -5.3575 C.3       7 UNK        -0.1935 
     47 C          28.1819    3.0259   -7.3114 C.2       7 UNK         0.5018 
     48 O          28.8252    4.0095   -6.9481 O.2       7 UNK        -0.5186 
     49 N          27.5213    2.9576   -8.4764 N.am      8 UNK        -0.4240 
     50 CA         27.5370    3.9967   -9.5127 C.3       8 UNK         0.0235 
     51 CB         26.5455    3.6171  -10.6243 C.3       8 UNK        -0.2000 
     52 C          28.9371    4.2565  -10.1053 C.2       8 UNK         0.4941 
     53 O          29.1954    5.3676  -10.5687 O.2       8 UNK        -0.5273 
     54 N          29.8134    3.2434  -10.0571 N.am      9 UNK        -0.4262 
     55 CA         31.2245    3.3209  -10.4368 C.3       9 UNK         0.0264 
     56 CB         31.5482    2.1165  -11.3398 C.3       9 UNK        -0.1955 
     57 C          32.1502    3.3351   -9.2048 C.2       9 UNK         0.5031 
     58 O          33.3667    3.2533   -9.3795 O.2       9 UNK        -0.5390 
     59 N          31.5793    3.3853   -7.9886 N.am      10 UNK        -0.4204 
     60 CA         32.2419    3.2669   -6.6822 C.3       10 UNK         0.0237 
     61 CB         33.0219    4.5590   -6.3612 C.3       10 UNK        -0.1985 
     62 C          33.1060    1.9938   -6.5476 C.2       10 UNK         0.4970 
     63 O          34.1861    2.0514   -5.9573 O.2       10 UNK        -0.4914 
     64 N          32.6286    0.8830   -7.1294 N.am      11 UNK        -0.4285 
     65 CA         33.3478   -0.3931   -7.2934 C.3       11 UNK         0.1007 
     66 C          34.5839   -0.3295   -8.2466 C.2       11 UNK         0.5703 
     67 N          34.7968    0.7336   -9.0138 N.am      11 UNK        -0.7361 
     68 O          35.3522   -1.2852   -8.3287 O.2       11 UNK        -0.4986 
     69 C69        33.6664   -1.0971   -5.9408 C.3       12 UNK        -0.0947 
     70 S70        32.1645   -1.6368   -5.0583 S.3       12 UNK        -0.2240 
     71 C71        32.7135   -3.2693   -4.4740 C.3       12 UNK         0.0194 
     72 H72        31.3427    1.4428   -2.9096 H         1 UNK         0.0906 
     73 H73        30.6022    0.7487   -4.3525 H         1 UNK         0.0906 
     74 H74        29.9673    2.2465   -3.6684 H         1 UNK         0.0906 
     75 H75        29.7749   -1.2036   -3.5783 H         1 UNK         0.3140 
     76 H76        28.7055   -2.7321   -2.5282 H         1 UNK         0.1085 
     77 H77        28.5386   -1.1627    0.0844 H         1 UNK         0.0836 
     78 H78        30.0708   -1.7315   -0.5006 H         1 UNK         0.0836 
     79 H79        30.2135   -5.4399    0.2501 H         1 UNK         0.0731 
     80 H80        31.0845   -3.9256    0.2452 H         1 UNK         0.0731 
     81 H81        32.1513   -3.3035   -1.8026 H         1 UNK         0.1312 
     82 H82        30.7859   -4.8335   -5.5656 H         1 UNK         0.1406 
     83 H83        28.7362   -5.8986   -1.9516 H         1 UNK         0.1631 
     84 H84        28.5022   -7.2309   -4.2124 H         1 UNK         0.0717 
     85 H85        28.9677   -6.3966   -5.6750 H         1 UNK         0.0717 
     86 H86        27.4139   -3.0204   -4.8144 H         1 UNK         0.0934 
     87 H87        28.4202   -3.9015   -5.9317 H         1 UNK         0.0934 
     88 H88        26.3866   -4.3773   -7.3713 H         1 UNK         0.0739 
     89 H89        24.9596   -2.4584   -5.5908 H         1 UNK         0.3093 
     90 H90        21.8468   -3.8124   -6.3876 H         1 UNK         0.0818 
     91 H91        23.1900   -4.4797   -3.7089 H         1 UNK         0.0819 
     92 H92        21.4505   -4.3597   -3.9865 H         1 UNK         0.0819 
     93 H93        22.3808   -5.6301   -4.7628 H         1 UNK         0.0819 
     94 H94        22.8262   -2.1055   -4.2477 H         1 UNK         0.3041 
     95 H95        23.3786    0.7370   -6.0881 H         1 UNK         0.0784 
     96 H96        20.8924    0.9575   -6.3130 H         1 UNK         0.0793 
     97 H97        20.6875    0.4376   -4.6463 H         1 UNK         0.0793 
     98 H98        21.5084    1.9571   -5.0103 H         1 UNK         0.0793 
     99 H99        22.8325    0.6840   -3.3592 H         1 UNK         0.3024 
    100 H100       25.0957    1.1330   -2.2443 H         1 UNK         0.1171 
    101 H101       23.9814   -1.6069   -1.4162 H         1 UNK         0.0786 
    102 H102       23.1628   -0.0582   -1.3065 H         1 UNK         0.0786 
    103 H103       24.5433   -0.3846   -0.2795 H         1 UNK         0.0786 
    104 H104       27.1613    0.3561   -2.0319 H         1 UNK         0.2977 
    105 H105       28.6517   -3.0810   -7.8053 H         1 UNK         0.3127 
    106 H106       27.9260   -0.9784   -9.6146 H         1 UNK         0.0770 
    107 H107       30.6648   -2.1109   -8.8436 H         1 UNK         0.0814 
    108 H108       30.3244   -1.1068  -10.2463 H         1 UNK         0.0814 
    109 H109       29.6305   -2.7120  -10.1399 H         1 UNK         0.0814 
    110 H110       27.2175   -0.0138   -7.1090 H         1 UNK         0.2983 
    111 H111       29.1808    1.7397   -5.9557 H         1 UNK         0.0947 
    112 H112       26.1220    1.7616   -5.7812 H         1 UNK         0.0806 
    113 H113       27.1914    2.7411   -4.7819 H         1 UNK         0.0806 
    114 H114       27.2411    0.9922   -4.6554 H         1 UNK         0.0806 
    115 H115       27.0183    2.1073   -8.6866 H         1 UNK         0.3000 
    116 H116       27.2004    4.9287   -9.0532 H         1 UNK         0.0850 
    117 H117       26.5144    4.3857  -11.3982 H         1 UNK         0.0810 
    118 H118       25.5325    3.5121  -10.2351 H         1 UNK         0.0810 
    119 H119       26.8197    2.6788  -11.1085 H         1 UNK         0.0810 
    120 H120       29.5229    2.3657   -9.6429 H         1 UNK         0.3040 
    121 H121       31.4203    4.2358  -10.9994 H         1 UNK         0.0766 
    122 H122       30.9007    2.0923  -12.2163 H         1 UNK         0.0812 
    123 H123       31.4299    1.1715  -10.8079 H         1 UNK         0.0812 
    124 H124       32.5767    2.1600  -11.7009 H         1 UNK         0.0812 
    125 H125       30.5730    3.4957   -7.9434 H         1 UNK         0.3205 
    126 H126       31.4459    3.1698   -5.9427 H         1 UNK         0.0754 
    127 H127       33.4213    4.5359   -5.3465 H         1 UNK         0.0769 
    128 H128       32.3798    5.4369   -6.4345 H         1 UNK         0.0769 
    129 H129       33.8632    4.7010   -7.0406 H         1 UNK         0.0769 
    130 H130       31.7243    0.9246   -7.5942 H         1 UNK         0.2981 
    131 H131       32.6487   -1.0357   -7.8288 H         1 UNK         0.0541 
    132 H132       34.1923    1.5487   -8.9814 H         1 UNK         0.3459 
    133 H133       35.5951    0.7353   -9.6277 H         1 UNK         0.3459 
    134 H134       34.2878   -1.9776   -6.1098 H         1 UNK         0.0612 
    135 H135       34.2484   -0.4520   -5.2823 H         1 UNK         0.0612 
    136 H136       33.5716   -3.1449   -3.8115 H         1 UNK         0.0624 
    137 H137       33.0590   -3.8629   -5.3219 H         1 UNK         0.0624 
@<TRIPOS>BOND
     1    1    2 1    
     2    1   72 1    
     3    1   73 1    
     4    1   74 1    
     5    2    3 2    
     6    2    4 am   BACKBONE|DICT|INTERRES
     7    4    5 1    
     8    4   75 1    
     9    5    6 1    
    10    5   35 1    
    11    5   76 1    
    12    6    7 1    
    13    6   77 1    
    14    6   78 1    
    15    7    8 1    
    16    8    9 1    
    17    8   79 1    
    18    8   80 1    
    19    9   10 ar   
    20    9   14 ar   
    21   10   11 ar   
    22   10   81 1    
    23   11   12 ar   
    24   11   71 1    
    25   12   13 ar   
    26   12   82 1    
    27   13   14 ar   
    28   13   15 1    
    29   14   83 1    
    30   15   16 1    
    31   15   84 1    
    32   15   85 1    
    33   16   17 1    
    34   17   18 1    
    35   17   86 1    
    36   17   87 1    
    37   18   19 1    
    38   18   37 1    
    39   18   88 1    
    40   19   20 am   BACKBONE|DICT|INTERRES
    41   19   89 1    
    42   20   21 2    
    43   20   22 1    
    44   22   23 1    
    45   22   24 1    
    46   22   90 1    
    47   23   91 1    
    48   23   92 1    
    49   23   93 1    
    50   24   25 am   BACKBONE|DICT|INTERRES
    51   24   94 1    
    52   25   26 2    
    53   25   27 1    
    54   27   28 1    
    55   27   29 1    
    56   27   95 1    
    57   28   96 1    
    58   28   97 1    
    59   28   98 1    
    60   29   30 am   BACKBONE|DICT|INTERRES
    61   29   99 1    
    62   30   31 2    
    63   30   32 1    
    64   32   33 1    
    65   32   34 1    
    66   32  100 1    
    67   33  101 1    
    68   33  102 1    
    69   33  103 1    
    70   34   35 am   BACKBONE|DICT|INTERRES
    71   34  104 1    
    72   35   36 2    
    73   37   38 2    
    74   37   39 am   BACKBONE|DICT|INTERRES
    75   39   40 1    
    76   39  105 1    
    77   40   41 1    
    78   40   42 1    
    79   40  106 1    
    80   41  107 1    
    81   41  108 1    
    82   41  109 1    
    83   42   43 2    
    84   42   44 am   BACKBONE|DICT|INTERRES
    85   44   45 1    
    86   44  110 1    
    87   45   46 1    
    88   45   47 1    
    89   45  111 1    
    90   46  112 1    
    91   46  113 1    
    92   46  114 1    
    93   47   48 2    
    94   47   49 am   BACKBONE|DICT|INTERRES
    95   49   50 1    
    96   49  115 1    
    97   50   51 1    
    98   50   52 1    
    99   50  116 1    
   100   51  117 1    
   101   51  118 1    
   102   51  119 1    
   103   52   53 2    
   104   52   54 am   BACKBONE|DICT|INTERRES
   105   54   55 1    
   106   54  120 1    
   107   55   56 1    
   108   55   57 1    
   109   55  121 1    
   110   56  122 1    
   111   56  123 1    
   112   56  124 1    
   113   57   58 2    
   114   57   59 am   BACKBONE|DICT|INTERRES
   115   59   60 1    
   116   59  125 1    
   117   60   61 1    
   118   60   62 1    
   119   60  126 1    
   120   61  127 1    
   121   61  128 1    
   122   61  129 1    
   123   62   63 2    
   124   62   64 am   BACKBONE|DICT|INTERRES
   125   64   65 1    
   126   64  130 1    
   127   65   66 1    
   128   65   69 1    
   129   65  131 1    
   130   66   67 am   BACKBONE|DICT|INTERRES
   131   66   68 2    
   132   67  132 1    
   133   67  133 1    
   134   69   70 1    
   135   69  134 1    
   136   69  135 1    
   137   70   71 1    
   138   71  136 1    
   139   71  137 1    
@<TRIPOS>SUBSTRUCTURE
     1 UNK         1 GROUP             0       ****    0 ROOT    
