@<TRIPOS>MOLECULE
3R137
137   139    1
SMALL
USER_CHARGES


@<TRIPOS>ATOM
      1 CA         29.2469   -2.8507    2.2644 C.3       0 UNK        -0.2020 
      2 C          28.7732   -1.5927    1.5521 C.2       0 UNK         0.4855 
      3 O          28.2968   -0.6630    2.2036 O.2       0 UNK        -0.5197 
      4 N          28.9035   -1.5563    0.2195 N.am      1 UNK        -0.4892 
      5 CA         28.4932   -0.4309   -0.6329 C.3       1 UNK         0.0835 
      6 C6         29.0895   -0.5274   -2.0612 C.3       12 UNK        -0.0855 
      7 S7         30.9123   -0.5569   -2.0895 S.3       12 UNK        -0.2931 
      8 C8         31.2636   -2.3327   -2.2879 C.3       12 UNK         0.0378 
      9 C9         31.0171   -2.8297   -3.7059 C.ar      12 UNK        -0.0802 
     10 C10        31.9754   -2.6028   -4.6967 C.ar      12 UNK        -0.0944 
     11 C11        31.8209   -3.1384   -5.9821 C.ar      12 UNK        -0.0787 
     12 C12        30.6705   -3.8775   -6.2741 C.ar      12 UNK        -0.0862 
     13 C13        29.6901   -4.0910   -5.2998 C.ar      12 UNK        -0.0733 
     14 C14        29.8703   -3.5673   -4.0161 C.ar      12 UNK        -0.0832 
     15 C15        28.4573   -4.9269   -5.6158 C.3       12 UNK         0.0240 
     16 S16        26.9952   -3.9008   -5.9636 S.3       12 UNK        -0.2522 
     17 C17        27.3604   -3.2897   -7.6450 C.3       12 UNK        -0.0967 
     18 CA         26.8234   -1.8668   -7.9225 C.3       5 UNK         0.0660 
     19 N          25.3715   -1.7765   -7.7437 N.am      5 UNK        -0.4015 
     20 C          24.6109   -0.7284   -8.0880 C.2       4 UNK         0.4946 
     21 O          25.0521    0.2794   -8.6431 O.2       4 UNK        -0.5353 
     22 CA         23.1227   -0.7857   -7.7032 C.3       4 UNK         0.0277 
     23 CB         22.2890   -1.3076   -8.8839 C.3       4 UNK        -0.1981 
     24 N          22.8316   -1.5852   -6.5040 N.am      4 UNK        -0.4209 
     25 C          23.3289   -1.3513   -5.2797 C.2       3 UNK         0.4942 
     26 O          24.1350   -0.4504   -5.0428 O.2       3 UNK        -0.5208 
     27 CA         22.8129   -2.2639   -4.1490 C.3       3 UNK         0.0250 
     28 CB         23.0543   -3.7601   -4.4521 C.3       3 UNK        -0.1990 
     29 N          23.3297   -1.8995   -2.8195 N.am      3 UNK        -0.4232 
     30 C          24.5847   -2.0190   -2.3590 C.2       2 UNK         0.4993 
     31 O          25.5206   -2.5107   -2.9945 O.2       2 UNK        -0.5286 
     32 CA         24.8165   -1.5440   -0.9138 C.3       2 UNK         0.0209 
     33 CB         24.2194   -2.5470    0.0893 C.3       2 UNK        -0.1931 
     34 N          26.2506   -1.4276   -0.6516 N.am      2 UNK        -0.4546 
     35 C          26.9579   -0.2931   -0.7180 C.2       1 UNK         0.5154 
     36 O          26.4540    0.8229   -0.8510 O.2       1 UNK        -0.5181 
     37 C          27.6127   -0.7760   -7.1653 C.2       5 UNK         0.5014 
     38 O          28.7117   -0.4329   -7.6036 O.2       5 UNK        -0.5248 
     39 N          27.0243   -0.1875   -6.1118 N.am      6 UNK        -0.4434 
     40 CA         27.5567    0.9789   -5.4031 C.3       6 UNK         0.0363 
     41 CB         26.6669    1.2733   -4.1873 C.3       6 UNK        -0.1936 
     42 C          27.6646    2.2409   -6.2789 C.2       6 UNK         0.5081 
     43 O          28.4742    3.1122   -5.9646 O.2       6 UNK        -0.5248 
     44 N          26.8561    2.3196   -7.3447 N.am      7 UNK        -0.4718 
     45 CA         26.8917    3.3857   -8.3435 C.3       7 UNK         0.0273 
     46 CB         25.4741    3.9510   -8.5313 C.3       7 UNK        -0.1935 
     47 C          27.4460    2.8709   -9.6792 C.2       7 UNK         0.5018 
     48 O          28.2500    3.5656  -10.3008 O.2       7 UNK        -0.5186 
     49 N          27.0010    1.6799  -10.1086 N.am      8 UNK        -0.4240 
     50 CA         27.3296    1.0990  -11.4131 C.3       8 UNK         0.0235 
     51 CB         26.3343   -0.0257  -11.7423 C.3       8 UNK        -0.2000 
     52 C          28.7784    0.5980  -11.5369 C.2       8 UNK         0.4941 
     53 O          29.3230    0.6447  -12.6411 O.2       8 UNK        -0.5273 
     54 N          29.3719    0.1298  -10.4304 N.am      9 UNK        -0.4262 
     55 CA         30.7649   -0.3193  -10.3656 C.3       9 UNK         0.0264 
     56 CB         30.8285   -1.7796   -9.8847 C.3       9 UNK        -0.1955 
     57 C          31.5777    0.6192   -9.4641 C.2       9 UNK         0.5031 
     58 O          32.6104    1.1230   -9.9064 O.2       9 UNK        -0.5390 
     59 N          31.0799    0.8624   -8.2399 N.am      10 UNK        -0.4204 
     60 CA         31.5757    1.8324   -7.2509 C.3       10 UNK         0.0237 
     61 CB         31.3005    3.2693   -7.7448 C.3       10 UNK        -0.1985 
     62 C          33.0503    1.6287   -6.8392 C.2       10 UNK         0.4970 
     63 O          33.7575    2.6063   -6.5876 O.2       10 UNK        -0.4914 
     64 N          33.4940    0.3666   -6.7918 N.am      11 UNK        -0.4285 
     65 CA         34.8901   -0.0245   -6.5386 C.3       11 UNK         0.1007 
     66 C          35.3459    0.0442   -5.0502 C.2       11 UNK         0.5703 
     67 N          34.4651    0.3185   -4.0947 N.am      11 UNK        -0.7361 
     68 O          36.5261   -0.1384   -4.7608 O.2       11 UNK        -0.4986 
     69 C69        35.2383   -1.3687   -7.2396 C.3       12 UNK        -0.0947 
     70 S70        34.5817   -2.8717   -6.4359 S.3       12 UNK        -0.2240 
     71 C71        32.8727   -2.9350   -7.0715 C.3       12 UNK         0.0194 
     72 H72        30.0213   -2.6017    2.9895 H         1 UNK         0.0906 
     73 H73        28.4175   -3.3143    2.7978 H         1 UNK         0.0906 
     74 H74        29.6566   -3.5846    1.5707 H         1 UNK         0.0906 
     75 H75        29.3211   -2.3400   -0.2585 H         1 UNK         0.3140 
     76 H76        28.8677    0.4867   -0.1728 H         1 UNK         0.1085 
     77 H77        28.6905   -1.3892   -2.5986 H         1 UNK         0.0836 
     78 H78        28.7941    0.3472   -2.6403 H         1 UNK         0.0836 
     79 H79        32.3091   -2.5062   -2.0281 H         1 UNK         0.0731 
     80 H80        30.6811   -2.9114   -1.5710 H         1 UNK         0.0731 
     81 H81        32.8567   -2.0293   -4.4473 H         1 UNK         0.1312 
     82 H82        30.5429   -4.2982   -7.2621 H         1 UNK         0.1406 
     83 H83        29.1221   -3.7518   -3.2572 H         1 UNK         0.1631 
     84 H84        28.2329   -5.5741   -4.7666 H         1 UNK         0.0717 
     85 H85        28.6446   -5.5922   -6.4602 H         1 UNK         0.0717 
     86 H86        26.9208   -3.9910   -8.3561 H         1 UNK         0.0934 
     87 H87        28.4333   -3.3235   -7.8342 H         1 UNK         0.0934 
     88 H88        27.0090   -1.6710   -8.9792 H         1 UNK         0.0739 
     89 H89        24.9370   -2.5502   -7.2621 H         1 UNK         0.3093 
     90 H90        22.8109    0.2395   -7.4926 H         1 UNK         0.0818 
     91 H91        21.2209   -1.2478   -8.6742 H         1 UNK         0.0819 
     92 H92        22.4728   -0.7164   -9.7826 H         1 UNK         0.0819 
     93 H93        22.5286   -2.3447   -9.1222 H         1 UNK         0.0819 
     94 H94        22.1640   -2.3346   -6.6176 H         1 UNK         0.3041 
     95 H95        21.7346   -2.1057   -4.0963 H         1 UNK         0.0784 
     96 H96        22.4905   -4.0881   -5.3256 H         1 UNK         0.0793 
     97 H97        24.1057   -3.9721   -4.6491 H         1 UNK         0.0793 
     98 H98        22.7400   -4.3879   -3.6182 H         1 UNK         0.0793 
     99 H99        22.6506   -1.4636   -2.2113 H         1 UNK         0.3024 
    100 H100       24.3299   -0.5744   -0.7836 H         1 UNK         0.1171 
    101 H101       24.3978   -2.2308    1.1174 H         1 UNK         0.0786 
    102 H102       24.6466   -3.5434   -0.0328 H         1 UNK         0.0786 
    103 H103       23.1398   -2.6379   -0.0360 H         1 UNK         0.0786 
    104 H104       26.7602   -2.2969   -0.5920 H         1 UNK         0.2977 
    105 H105       26.1082   -0.5088   -5.8145 H         1 UNK         0.3127 
    106 H106       28.5600    0.7238   -5.0560 H         1 UNK         0.0770 
    107 H107       25.6904    1.6568   -4.4856 H         1 UNK         0.0814 
    108 H108       27.1237    2.0215   -3.5382 H         1 UNK         0.0814 
    109 H109       26.4983    0.3766   -3.5920 H         1 UNK         0.0814 
    110 H110       26.2187    1.5523   -7.5276 H         1 UNK         0.2983 
    111 H111       27.5392    4.2006   -8.0116 H         1 UNK         0.0947 
    112 H112       25.4658    4.7437   -9.2806 H         1 UNK         0.0806 
    113 H113       25.0949    4.3788   -7.6032 H         1 UNK         0.0806 
    114 H114       24.7699    3.1843   -8.8575 H         1 UNK         0.0806 
    115 H115       26.3019    1.1859   -9.5557 H         1 UNK         0.3000 
    116 H116       27.1988    1.8835  -12.1621 H         1 UNK         0.0850 
    117 H117       26.5188   -0.4293  -12.7389 H         1 UNK         0.0810 
    118 H118       25.3063    0.3369  -11.7256 H         1 UNK         0.0810 
    119 H119       26.4065   -0.8539  -11.0389 H         1 UNK         0.0810 
    120 H120       28.8644    0.1471   -9.5534 H         1 UNK         0.3040 
    121 H121       31.2216   -0.2859  -11.3571 H         1 UNK         0.0766 
    122 H122       30.2434   -2.4315  -10.5333 H         1 UNK         0.0812 
    123 H123       30.4537   -1.9016   -8.8690 H         1 UNK         0.0812 
    124 H124       31.8550   -2.1467   -9.9049 H         1 UNK         0.0812 
    125 H125       30.2326    0.3621   -7.9653 H         1 UNK         0.3205 
    126 H126       30.9835    1.6736   -6.3485 H         1 UNK         0.0754 
    127 H127       31.4979    3.9993   -6.9590 H         1 UNK         0.0769 
    128 H128       30.2600    3.3939   -8.0444 H         1 UNK         0.0769 
    129 H129       31.9256    3.5292   -8.5998 H         1 UNK         0.0769 
    130 H130       32.8462   -0.3821   -6.9774 H         1 UNK         0.2981 
    131 H131       35.5059    0.7261   -7.0382 H         1 UNK         0.0541 
    132 H132       33.4994    0.4907   -4.3203 H         1 UNK         0.3459 
    133 H133       34.7766    0.3675   -3.1379 H         1 UNK         0.3459 
    134 H134       36.3231   -1.4799   -7.2836 H         1 UNK         0.0612 
    135 H135       34.9111   -1.3487   -8.2806 H         1 UNK         0.0612 
    136 H136       32.6344   -2.0238   -7.6151 H         1 UNK         0.0624 
    137 H137       32.8212   -3.7453   -7.8003 H         1 UNK         0.0624 
@<TRIPOS>BOND
     1    1    2 1    
     2    1   72 1    
     3    1   73 1    
     4    1   74 1    
     5    2    3 2    
     6    2    4 am   BACKBONE|DICT|INTERRES
     7    4    5 1    
     8    4   75 1    
     9    5    6 1    
    10    5   35 1    
    11    5   76 1    
    12    6    7 1    
    13    6   77 1    
    14    6   78 1    
    15    7    8 1    
    16    8    9 1    
    17    8   79 1    
    18    8   80 1    
    19    9   10 ar   
    20    9   14 ar   
    21   10   11 ar   
    22   10   81 1    
    23   11   12 ar   
    24   11   71 1    
    25   12   13 ar   
    26   12   82 1    
    27   13   14 ar   
    28   13   15 1    
    29   14   83 1    
    30   15   16 1    
    31   15   84 1    
    32   15   85 1    
    33   16   17 1    
    34   17   18 1    
    35   17   86 1    
    36   17   87 1    
    37   18   19 1    
    38   18   37 1    
    39   18   88 1    
    40   19   20 am   BACKBONE|DICT|INTERRES
    41   19   89 1    
    42   20   21 2    
    43   20   22 1    
    44   22   23 1    
    45   22   24 1    
    46   22   90 1    
    47   23   91 1    
    48   23   92 1    
    49   23   93 1    
    50   24   25 am   BACKBONE|DICT|INTERRES
    51   24   94 1    
    52   25   26 2    
    53   25   27 1    
    54   27   28 1    
    55   27   29 1    
    56   27   95 1    
    57   28   96 1    
    58   28   97 1    
    59   28   98 1    
    60   29   30 am   BACKBONE|DICT|INTERRES
    61   29   99 1    
    62   30   31 2    
    63   30   32 1    
    64   32   33 1    
    65   32   34 1    
    66   32  100 1    
    67   33  101 1    
    68   33  102 1    
    69   33  103 1    
    70   34   35 am   BACKBONE|DICT|INTERRES
    71   34  104 1    
    72   35   36 2    
    73   37   38 2    
    74   37   39 am   BACKBONE|DICT|INTERRES
    75   39   40 1    
    76   39  105 1    
    77   40   41 1    
    78   40   42 1    
    79   40  106 1    
    80   41  107 1    
    81   41  108 1    
    82   41  109 1    
    83   42   43 2    
    84   42   44 am   BACKBONE|DICT|INTERRES
    85   44   45 1    
    86   44  110 1    
    87   45   46 1    
    88   45   47 1    
    89   45  111 1    
    90   46  112 1    
    91   46  113 1    
    92   46  114 1    
    93   47   48 2    
    94   47   49 am   BACKBONE|DICT|INTERRES
    95   49   50 1    
    96   49  115 1    
    97   50   51 1    
    98   50   52 1    
    99   50  116 1    
   100   51  117 1    
   101   51  118 1    
   102   51  119 1    
   103   52   53 2    
   104   52   54 am   BACKBONE|DICT|INTERRES
   105   54   55 1    
   106   54  120 1    
   107   55   56 1    
   108   55   57 1    
   109   55  121 1    
   110   56  122 1    
   111   56  123 1    
   112   56  124 1    
   113   57   58 2    
   114   57   59 am   BACKBONE|DICT|INTERRES
   115   59   60 1    
   116   59  125 1    
   117   60   61 1    
   118   60   62 1    
   119   60  126 1    
   120   61  127 1    
   121   61  128 1    
   122   61  129 1    
   123   62   63 2    
   124   62   64 am   BACKBONE|DICT|INTERRES
   125   64   65 1    
   126   64  130 1    
   127   65   66 1    
   128   65   69 1    
   129   65  131 1    
   130   66   67 am   BACKBONE|DICT|INTERRES
   131   66   68 2    
   132   67  132 1    
   133   67  133 1    
   134   69   70 1    
   135   69  134 1    
   136   69  135 1    
   137   70   71 1    
   138   71  136 1    
   139   71  137 1    
@<TRIPOS>SUBSTRUCTURE
     1 UNK         1 GROUP             0       ****    0 ROOT    
