@<TRIPOS>MOLECULE
3R137
137   139    1
SMALL
USER_CHARGES


@<TRIPOS>ATOM
      1 CA         25.8129   -3.8210    0.9508 C.3       0 UNK        -0.2020 
      2 C          26.5178   -3.1373   -0.2102 C.2       0 UNK         0.4855 
      3 O          25.9404   -3.0198   -1.2901 O.2       0 UNK        -0.5197 
      4 N          27.7533   -2.6634    0.0091 N.am      1 UNK        -0.4892 
      5 CA         28.6325   -2.0274   -0.9909 C.3       1 UNK         0.0835 
      6 C6         29.1278   -3.0184   -2.0784 C.3       12 UNK        -0.0855 
      7 S7         29.9348   -4.5028   -1.3716 S.3       12 UNK        -0.2931 
      8 C8         31.5474   -4.5257   -2.2353 C.3       12 UNK         0.0378 
      9 C9         31.4774   -4.5946   -3.7629 C.ar      12 UNK        -0.0802 
     10 C10        32.5970   -4.2031   -4.5028 C.ar      12 UNK        -0.0944 
     11 C11        32.5618   -4.1848   -5.9000 C.ar      12 UNK        -0.0787 
     12 C12        31.3889   -4.5565   -6.5634 C.ar      12 UNK        -0.0862 
     13 C13        30.2638   -4.9640   -5.8410 C.ar      12 UNK        -0.0733 
     14 C14        30.3294   -5.0152   -4.4459 C.ar      12 UNK        -0.0832 
     15 C15        28.9670   -5.3066   -6.5694 C.3       12 UNK         0.0240 
     16 S16        27.4948   -4.5070   -5.8343 S.3       12 UNK        -0.2522 
     17 C17        27.9681   -2.7434   -5.8470 C.3       12 UNK        -0.0967 
     18 CA         27.1965   -1.9344   -6.9108 C.3       5 UNK         0.0660 
     19 N          25.7554   -1.9195   -6.6539 N.am      5 UNK        -0.4015 
     20 C          24.8372   -1.3034   -7.4098 C.2       4 UNK         0.4946 
     21 O          25.0953   -0.7499   -8.4796 O.2       4 UNK        -0.5353 
     22 CA         23.4037   -1.2311   -6.8485 C.3       4 UNK         0.0277 
     23 CB         22.5425   -2.3574   -7.4413 C.3       4 UNK        -0.1981 
     24 N          23.3045   -1.2619   -5.3792 N.am      4 UNK        -0.4209 
     25 C          23.9411   -0.4390   -4.5299 C.2       3 UNK         0.4942 
     26 O          24.7381    0.4194   -4.9100 O.2       3 UNK        -0.5208 
     27 CA         23.6547   -0.6120   -3.0217 C.3       3 UNK         0.0250 
     28 CB         23.1825   -2.0325   -2.6503 C.3       3 UNK        -0.1990 
     29 N          24.8250   -0.2647   -2.2058 N.am      3 UNK        -0.4232 
     30 C          25.1965    0.9879   -1.8943 C.2       2 UNK         0.4993 
     31 O          24.5301    1.9823   -2.1878 O.2       2 UNK        -0.5286 
     32 CA         26.5039    1.1955   -1.1007 C.3       2 UNK         0.0209 
     33 CB         26.2342    1.9643    0.2055 C.3       2 UNK        -0.1931 
     34 N          27.2163   -0.0396   -0.7689 N.am      2 UNK        -0.4546 
     35 C          28.0133   -0.7388   -1.5899 C.2       1 UNK         0.5154 
     36 O          28.2439   -0.4111   -2.7549 O.2       1 UNK        -0.5181 
     37 C          27.8004   -0.5203   -7.0249 C.2       5 UNK         0.5014 
     38 O          28.6618   -0.3231   -7.8780 O.2       5 UNK        -0.5248 
     39 N          27.3253    0.4351   -6.2091 N.am      6 UNK        -0.4434 
     40 CA         27.7825    1.8285   -6.2105 C.3       6 UNK         0.0363 
     41 CB         27.3307    2.5222   -4.9165 C.3       6 UNK        -0.1936 
     42 C          27.3246    2.6247   -7.4448 C.2       6 UNK         0.5081 
     43 O          27.9381    3.6441   -7.7631 O.2       6 UNK        -0.5248 
     44 N          26.2640    2.1616   -8.1212 N.am      7 UNK        -0.4718 
     45 CA         25.8383    2.6879   -9.4186 C.3       7 UNK         0.0273 
     46 CB         24.3321    2.4454   -9.6087 C.3       7 UNK        -0.1935 
     47 C          26.6460    2.0575  -10.5653 C.2       7 UNK         0.5018 
     48 O          26.9076    2.7351  -11.5598 O.2       7 UNK        -0.5186 
     49 N          27.0208    0.7792  -10.4109 N.am      8 UNK        -0.4240 
     50 CA         27.7983    0.0148  -11.3856 C.3       8 UNK         0.0235 
     51 CB         27.6688   -1.4874  -11.0836 C.3       8 UNK        -0.2000 
     52 C          29.2779    0.4317  -11.4476 C.2       8 UNK         0.4941 
     53 O          29.8203    0.5297  -12.5498 O.2       8 UNK        -0.5273 
     54 N          29.9103    0.6556  -10.2885 N.am      9 UNK        -0.4262 
     55 CA         31.3296    0.9882  -10.1646 C.3       9 UNK         0.0264 
     56 CB         32.1607   -0.3088  -10.2011 C.3       9 UNK        -0.1955 
     57 C          31.5844    1.7622   -8.8658 C.2       9 UNK         0.5031 
     58 O          30.7505    1.7463   -7.9617 O.2       9 UNK        -0.5390 
     59 N          32.7609    2.3962   -8.7668 N.am      10 UNK        -0.4204 
     60 CA         33.1945    3.1772   -7.5988 C.3       10 UNK         0.0237 
     61 CB         34.5334    3.8626   -7.9186 C.3       10 UNK        -0.1985 
     62 C          33.3031    2.3702   -6.2883 C.2       10 UNK         0.4970 
     63 O          33.2128    2.9603   -5.2111 O.2       10 UNK        -0.4914 
     64 N          33.4919    1.0503   -6.4027 N.am      11 UNK        -0.4285 
     65 CA         33.4971    0.0907   -5.2910 C.3       11 UNK         0.1007 
     66 C          32.0970   -0.2344   -4.6888 C.2       11 UNK         0.5703 
     67 N          30.9891    0.1685   -5.3006 N.am      11 UNK        -0.7361 
     68 O          32.0208   -0.8363   -3.6208 O.2       11 UNK        -0.4986 
     69 C69        34.3060   -1.1820   -5.6558 C.3       12 UNK        -0.0947 
     70 S70        33.7310   -2.0155   -7.1779 S.3       12 UNK        -0.2240 
     71 C71        33.7887   -3.7693   -6.6977 C.3       12 UNK         0.0194 
     72 H72        25.5709   -4.8499    0.6861 H         1 UNK         0.0906 
     73 H73        26.4280   -3.8377    1.8503 H         1 UNK         0.0906 
     74 H74        24.8837   -3.3015    1.1833 H         1 UNK         0.0906 
     75 H75        28.1703   -2.7918    0.9213 H         1 UNK         0.3140 
     76 H76        29.5142   -1.6870   -0.4452 H         1 UNK         0.1085 
     77 H77        29.8271   -2.5185   -2.7521 H         1 UNK         0.0836 
     78 H78        28.2940   -3.3497   -2.6993 H         1 UNK         0.0836 
     79 H79        32.1004   -3.6325   -1.9387 H         1 UNK         0.0731 
     80 H80        32.1213   -5.3803   -1.8751 H         1 UNK         0.0731 
     81 H81        33.4961   -3.8977   -3.9858 H         1 UNK         0.1312 
     82 H82        31.3528   -4.5176   -7.6437 H         1 UNK         0.1406 
     83 H83        29.4567   -5.3394   -3.8975 H         1 UNK         0.1631 
     84 H84        28.8273   -6.3881   -6.5536 H         1 UNK         0.0717 
     85 H85        29.0268   -5.0156   -7.6193 H         1 UNK         0.0717 
     86 H86        27.7876   -2.3327   -4.8517 H         1 UNK         0.0934 
     87 H87        29.0436   -2.6515   -6.0094 H         1 UNK         0.0934 
     88 H88        27.3403   -2.4201   -7.8780 H         1 UNK         0.0739 
     89 H89        25.4522   -2.3623   -5.7996 H         1 UNK         0.3093 
     90 H90        22.9873   -0.2760   -7.1751 H         1 UNK         0.0818 
     91 H91        21.4960   -2.2519   -7.1547 H         1 UNK         0.0819 
     92 H92        22.5791   -2.3438   -8.5318 H         1 UNK         0.0819 
     93 H93        22.8841   -3.3411   -7.1165 H         1 UNK         0.0819 
     94 H94        22.6719   -1.9454   -4.9886 H         1 UNK         0.3041 
     95 H95        22.8459    0.0787   -2.7748 H         1 UNK         0.0784 
     96 H96        22.2047   -2.2556   -3.0785 H         1 UNK         0.0793 
     97 H97        23.8810   -2.7961   -2.9953 H         1 UNK         0.0793 
     98 H98        23.0829   -2.1439   -1.5702 H         1 UNK         0.0793 
     99 H99        25.4229   -1.0358   -1.9298 H         1 UNK         0.3024 
    100 H100       27.1553    1.8099   -1.7254 H         1 UNK         0.1171 
    101 H101       25.7635    2.9280    0.0058 H         1 UNK         0.0786 
    102 H102       27.1592    2.1675    0.7455 H         1 UNK         0.0786 
    103 H103       25.5707    1.4095    0.8702 H         1 UNK         0.0786 
    104 H104       27.0669   -0.4093    0.1592 H         1 UNK         0.2977 
    105 H105       26.5464    0.2249   -5.5895 H         1 UNK         0.3127 
    106 H106       28.8725    1.8236   -6.2161 H         1 UNK         0.0770 
    107 H107       26.2444    2.5804   -4.8429 H         1 UNK         0.0814 
    108 H108       27.7020    1.9930   -4.0401 H         1 UNK         0.0814 
    109 H109       27.7156    3.5415   -4.8667 H         1 UNK         0.0814 
    110 H110       25.8158    1.3125   -7.8013 H         1 UNK         0.2983 
    111 H111       26.0091    3.7667   -9.4443 H         1 UNK         0.0947 
    112 H112       23.9860    2.8809  -10.5470 H         1 UNK         0.0806 
    113 H113       23.7524    2.9021   -8.8065 H         1 UNK         0.0806 
    114 H114       24.0882    1.3834   -9.6364 H         1 UNK         0.0806 
    115 H115       26.7318    0.2911   -9.5721 H         1 UNK         0.3000 
    116 H116       27.3637    0.1949  -12.3715 H         1 UNK         0.0850 
    117 H117       28.1725   -2.0814  -11.8473 H         1 UNK         0.0810 
    118 H118       26.6247   -1.8011  -11.0631 H         1 UNK         0.0810 
    119 H119       28.1159   -1.7476  -10.1243 H         1 UNK         0.0810 
    120 H120       29.4163    0.5467   -9.4018 H         1 UNK         0.3040 
    121 H121       31.6215    1.6334  -10.9960 H         1 UNK         0.0766 
    122 H122       33.2260   -0.1084  -10.0823 H         1 UNK         0.0812 
    123 H123       32.0378   -0.8327  -11.1490 H         1 UNK         0.0812 
    124 H124       31.8637   -0.9916   -9.4039 H         1 UNK         0.0812 
    125 H125       33.4013    2.3573   -9.5472 H         1 UNK         0.3205 
    126 H126       32.4450    3.9537   -7.4315 H         1 UNK         0.0754 
    127 H127       34.8685    4.4759   -7.0808 H         1 UNK         0.0769 
    128 H128       34.4470    4.5210   -8.7833 H         1 UNK         0.0769 
    129 H129       35.3200    3.1356   -8.1250 H         1 UNK         0.0769 
    130 H130       33.5392    0.6445   -7.3247 H         1 UNK         0.2981 
    131 H131       34.0411    0.5679   -4.4736 H         1 UNK         0.0541 
    132 H132       31.0211    0.6624   -6.1855 H         1 UNK         0.3459 
    133 H133       30.1023   -0.0320   -4.8671 H         1 UNK         0.3459 
    134 H134       34.3123   -1.8813   -4.8198 H         1 UNK         0.0612 
    135 H135       35.3512   -0.9111   -5.8115 H         1 UNK         0.0612 
    136 H136       34.7029   -3.9684   -6.1362 H         1 UNK         0.0624 
    137 H137       33.8535   -4.3741   -7.6034 H         1 UNK         0.0624 
@<TRIPOS>BOND
     1    1    2 1    
     2    1   72 1    
     3    1   73 1    
     4    1   74 1    
     5    2    3 2    
     6    2    4 am   BACKBONE|DICT|INTERRES
     7    4    5 1    
     8    4   75 1    
     9    5    6 1    
    10    5   35 1    
    11    5   76 1    
    12    6    7 1    
    13    6   77 1    
    14    6   78 1    
    15    7    8 1    
    16    8    9 1    
    17    8   79 1    
    18    8   80 1    
    19    9   10 ar   
    20    9   14 ar   
    21   10   11 ar   
    22   10   81 1    
    23   11   12 ar   
    24   11   71 1    
    25   12   13 ar   
    26   12   82 1    
    27   13   14 ar   
    28   13   15 1    
    29   14   83 1    
    30   15   16 1    
    31   15   84 1    
    32   15   85 1    
    33   16   17 1    
    34   17   18 1    
    35   17   86 1    
    36   17   87 1    
    37   18   19 1    
    38   18   37 1    
    39   18   88 1    
    40   19   20 am   BACKBONE|DICT|INTERRES
    41   19   89 1    
    42   20   21 2    
    43   20   22 1    
    44   22   23 1    
    45   22   24 1    
    46   22   90 1    
    47   23   91 1    
    48   23   92 1    
    49   23   93 1    
    50   24   25 am   BACKBONE|DICT|INTERRES
    51   24   94 1    
    52   25   26 2    
    53   25   27 1    
    54   27   28 1    
    55   27   29 1    
    56   27   95 1    
    57   28   96 1    
    58   28   97 1    
    59   28   98 1    
    60   29   30 am   BACKBONE|DICT|INTERRES
    61   29   99 1    
    62   30   31 2    
    63   30   32 1    
    64   32   33 1    
    65   32   34 1    
    66   32  100 1    
    67   33  101 1    
    68   33  102 1    
    69   33  103 1    
    70   34   35 am   BACKBONE|DICT|INTERRES
    71   34  104 1    
    72   35   36 2    
    73   37   38 2    
    74   37   39 am   BACKBONE|DICT|INTERRES
    75   39   40 1    
    76   39  105 1    
    77   40   41 1    
    78   40   42 1    
    79   40  106 1    
    80   41  107 1    
    81   41  108 1    
    82   41  109 1    
    83   42   43 2    
    84   42   44 am   BACKBONE|DICT|INTERRES
    85   44   45 1    
    86   44  110 1    
    87   45   46 1    
    88   45   47 1    
    89   45  111 1    
    90   46  112 1    
    91   46  113 1    
    92   46  114 1    
    93   47   48 2    
    94   47   49 am   BACKBONE|DICT|INTERRES
    95   49   50 1    
    96   49  115 1    
    97   50   51 1    
    98   50   52 1    
    99   50  116 1    
   100   51  117 1    
   101   51  118 1    
   102   51  119 1    
   103   52   53 2    
   104   52   54 am   BACKBONE|DICT|INTERRES
   105   54   55 1    
   106   54  120 1    
   107   55   56 1    
   108   55   57 1    
   109   55  121 1    
   110   56  122 1    
   111   56  123 1    
   112   56  124 1    
   113   57   58 2    
   114   57   59 am   BACKBONE|DICT|INTERRES
   115   59   60 1    
   116   59  125 1    
   117   60   61 1    
   118   60   62 1    
   119   60  126 1    
   120   61  127 1    
   121   61  128 1    
   122   61  129 1    
   123   62   63 2    
   124   62   64 am   BACKBONE|DICT|INTERRES
   125   64   65 1    
   126   64  130 1    
   127   65   66 1    
   128   65   69 1    
   129   65  131 1    
   130   66   67 am   BACKBONE|DICT|INTERRES
   131   66   68 2    
   132   67  132 1    
   133   67  133 1    
   134   69   70 1    
   135   69  134 1    
   136   69  135 1    
   137   70   71 1    
   138   71  136 1    
   139   71  137 1    
@<TRIPOS>SUBSTRUCTURE
     1 UNK         1 GROUP             0       ****    0 ROOT    
