@<TRIPOS>MOLECULE
3R137
137   139    1
SMALL
USER_CHARGES


@<TRIPOS>ATOM
      1 CA         28.7048   -7.4759   -5.4872 C.3       0 UNK        -0.2020 
      2 C          28.0174   -6.9596   -4.2318 C.2       0 UNK         0.4855 
      3 O          27.1039   -7.6101   -3.7219 O.2       0 UNK        -0.5197 
      4 N          28.4566   -5.8009   -3.7265 N.am      1 UNK        -0.4892 
      5 CA         27.8775   -5.1173   -2.5628 C.3       1 UNK         0.0835 
      6 C6         28.8688   -4.1019   -1.9392 C.3       12 UNK        -0.0855 
      7 S7         30.4896   -4.8426   -1.5305 S.3       12 UNK        -0.2931 
      8 C8         31.2108   -3.5923   -0.4170 C.3       12 UNK         0.0378 
      9 C9         31.1697   -2.1977   -1.0249 C.ar      12 UNK        -0.0802 
     10 C10        32.0438   -1.8452   -2.0569 C.ar      12 UNK        -0.0944 
     11 C11        31.9724   -0.5776   -2.6441 C.ar      12 UNK        -0.0787 
     12 C12        31.0159    0.3391   -2.1947 C.ar      12 UNK        -0.0862 
     13 C13        30.1376   -0.0052   -1.1629 C.ar      12 UNK        -0.0733 
     14 C14        30.2312   -1.2678   -0.5720 C.ar      12 UNK        -0.0832 
     15 C15        29.0671    0.9655   -0.6925 C.3       12 UNK         0.0240 
     16 S16        27.4150    0.3374   -1.1262 S.3       12 UNK        -0.2522 
     17 C17        26.7469    1.6821   -2.1565 C.3       12 UNK        -0.0967 
     18 CA         27.2663    1.6791   -3.6170 C.3       5 UNK         0.0660 
     19 N          27.1083    0.3788   -4.2772 N.am      5 UNK        -0.4015 
     20 C          27.6157    0.0677   -5.4810 C.2       4 UNK         0.4946 
     21 O          28.2988    0.8360   -6.1579 O.2       4 UNK        -0.5353 
     22 CA         27.2486   -1.3062   -6.0700 C.3       4 UNK         0.0277 
     23 CB         28.3215   -2.3444   -5.7110 C.3       4 UNK        -0.1981 
     24 N          25.9225   -1.7870   -5.6670 N.am      4 UNK        -0.4209 
     25 C          24.7760   -1.1204   -5.8829 C.2       3 UNK         0.4942 
     26 O          24.7200   -0.0530   -6.4951 O.2       3 UNK        -0.5208 
     27 CA         23.4779   -1.6894   -5.2828 C.3       3 UNK         0.0250 
     28 CB         22.6547   -2.3973   -6.3702 C.3       3 UNK        -0.1990 
     29 N          23.6720   -2.6025   -4.1531 N.am      3 UNK        -0.4232 
     30 C          24.2878   -2.3113   -2.9975 C.2       2 UNK         0.4993 
     31 O          24.7741   -1.2093   -2.7415 O.2       2 UNK        -0.5286 
     32 CA         24.4189   -3.4560   -1.9712 C.3       2 UNK         0.0209 
     33 CB         23.3853   -4.5875   -2.1738 C.3       2 UNK        -0.1931 
     34 N          25.7716   -4.0320   -1.9064 N.am      2 UNK        -0.4546 
     35 C          26.5368   -4.4396   -2.9322 C.2       1 UNK         0.5154 
     36 O          26.2274   -4.2910   -4.1190 O.2       1 UNK        -0.5181 
     37 C          26.5856    2.8203   -4.4017 C.2       5 UNK         0.5014 
     38 O          27.1010    3.9391   -4.4073 O.2       5 UNK        -0.5248 
     39 N          25.4397    2.5234   -5.0325 N.am      6 UNK        -0.4434 
     40 CA         24.6801    3.4647   -5.8539 C.3       6 UNK         0.0363 
     41 CB         23.1938    3.0708   -5.8468 C.3       6 UNK        -0.1936 
     42 C          25.2208    3.5207   -7.2895 C.2       6 UNK         0.5081 
     43 O          25.2876    4.6072   -7.8646 O.2       6 UNK        -0.5248 
     44 N          25.5922    2.3566   -7.8429 N.am      7 UNK        -0.4718 
     45 CA         26.1399    2.2195   -9.1943 C.3       7 UNK         0.0273 
     46 CB         26.1818    0.7342   -9.5871 C.3       7 UNK        -0.1935 
     47 C          27.5308    2.8535   -9.3518 C.2       7 UNK         0.5018 
     48 O          27.8061    3.4333  -10.4032 O.2       7 UNK        -0.5186 
     49 N          28.3822    2.7143   -8.3229 N.am      8 UNK        -0.4240 
     50 CA         29.7632    3.2022   -8.1893 C.3       8 UNK         0.0235 
     51 CB         29.8351    4.7391   -8.2688 C.3       8 UNK        -0.2000 
     52 C          30.7652    2.5417   -9.1524 C.2       8 UNK         0.4941 
     53 O          31.8096    2.0711   -8.7053 O.2       8 UNK        -0.5273 
     54 N          30.4220    2.4683  -10.4447 N.am      9 UNK        -0.4262 
     55 CA         31.2044    1.8368  -11.5142 C.3       9 UNK         0.0264 
     56 CB         30.5401    2.1474  -12.8654 C.3       9 UNK        -0.1955 
     57 C          31.3966    0.3167  -11.3442 C.2       9 UNK         0.5031 
     58 O          32.2922   -0.2514  -11.9701 O.2       9 UNK        -0.5390 
     59 N          30.5636   -0.3108  -10.5029 N.am      10 UNK        -0.4204 
     60 CA         30.6705   -1.7103  -10.0916 C.3       10 UNK         0.0237 
     61 CB         29.3685   -2.1167   -9.3825 C.3       10 UNK        -0.1985 
     62 C          31.8834   -1.9897   -9.1827 C.2       10 UNK         0.4970 
     63 O          32.3560   -3.1269   -9.1589 O.2       10 UNK        -0.4914 
     64 N          32.3541   -0.9740   -8.4464 N.am      11 UNK        -0.4285 
     65 CA         33.5253   -1.0596   -7.5649 C.3       11 UNK         0.1007 
     66 C          34.8530   -1.0394   -8.3681 C.2       11 UNK         0.5703 
     67 N          35.8614   -1.7729   -7.9162 N.am      11 UNK        -0.7361 
     68 O          34.9928   -0.3382   -9.3685 O.2       11 UNK        -0.4986 
     69 C69        33.5060    0.0607   -6.4948 C.3       12 UNK        -0.0947 
     70 S70        32.0809   -0.1052   -5.3671 S.3       12 UNK        -0.2240 
     71 C71        32.9303   -0.1993   -3.7622 C.3       12 UNK         0.0194 
     72 H72        29.5000   -6.8093   -5.8207 H         1 UNK         0.0906 
     73 H73        29.1408   -8.4569   -5.3003 H         1 UNK         0.0906 
     74 H74        27.9820   -7.5722   -6.2969 H         1 UNK         0.0906 
     75 H75        29.2103   -5.3100   -4.1846 H         1 UNK         0.3140 
     76 H76        27.6558   -5.8767   -1.8093 H         1 UNK         0.1085 
     77 H77        28.4499   -3.6759   -1.0258 H         1 UNK         0.0836 
     78 H78        29.0424   -3.2625   -2.6132 H         1 UNK         0.0836 
     79 H79        32.2440   -3.8645   -0.1967 H         1 UNK         0.0731 
     80 H80        30.6794   -3.6150    0.5358 H         1 UNK         0.0731 
     81 H81        32.7686   -2.5660   -2.4107 H         1 UNK         0.1312 
     82 H82        30.9501    1.3131   -2.6601 H         1 UNK         0.1406 
     83 H83        29.5443   -1.5358    0.2197 H         1 UNK         0.1631 
     84 H84        29.2272    1.9562   -1.1200 H         1 UNK         0.0717 
     85 H85        29.1316    1.0829    0.3901 H         1 UNK         0.0717 
     86 H86        25.6595    1.5794   -2.1420 H         1 UNK         0.0934 
     87 H87        26.9625    2.6361   -1.6708 H         1 UNK         0.0934 
     88 H88        28.3365    1.8959   -3.5966 H         1 UNK         0.0739 
     89 H89        26.5396   -0.3015   -3.7855 H         1 UNK         0.3093 
     90 H90        27.2298   -1.2026   -7.1547 H         1 UNK         0.0818 
     91 H91        28.3752   -2.4998   -4.6353 H         1 UNK         0.0819 
     92 H92        28.1204   -3.3067   -6.1821 H         1 UNK         0.0819 
     93 H93        29.3097   -2.0185   -6.0396 H         1 UNK         0.0819 
     94 H94        25.8913   -2.6626   -5.1496 H         1 UNK         0.3041 
     95 H95        22.8998   -0.8391   -4.9152 H         1 UNK         0.0784 
     96 H96        22.4689   -1.7317   -7.2147 H         1 UNK         0.0793 
     97 H97        23.1697   -3.2778   -6.7565 H         1 UNK         0.0793 
     98 H98        21.6828   -2.7139   -5.9910 H         1 UNK         0.0793 
     99 H99        23.3489   -3.5501   -4.2829 H         1 UNK         0.3024 
    100 H100       24.2231   -3.0018   -0.9982 H         1 UNK         0.1171 
    101 H101       23.4082   -5.2875   -1.3383 H         1 UNK         0.0786 
    102 H102       22.3693   -4.1931   -2.2274 H         1 UNK         0.0786 
    103 H103       23.5717   -5.1614   -3.0824 H         1 UNK         0.0786 
    104 H104       26.1347   -4.1529   -0.9710 H         1 UNK         0.2977 
    105 H105       25.1175    1.5641   -5.0343 H         1 UNK         0.3127 
    106 H106       24.7646    4.4651   -5.4232 H         1 UNK         0.0770 
    107 H107       23.0319    2.0794   -6.2716 H         1 UNK         0.0814 
    108 H108       22.6030    3.7757   -6.4334 H         1 UNK         0.0814 
    109 H109       22.7882    3.0724   -4.8351 H         1 UNK         0.0814 
    110 H110       25.4355    1.4983   -7.3198 H         1 UNK         0.2983 
    111 H111       25.4638    2.7344   -9.8805 H         1 UNK         0.0947 
    112 H112       26.5082    0.6136  -10.6210 H         1 UNK         0.0806 
    113 H113       25.1983    0.2715   -9.5010 H         1 UNK         0.0806 
    114 H114       26.8726    0.1713   -8.9608 H         1 UNK         0.0806 
    115 H115       28.0751    2.1469   -7.5351 H         1 UNK         0.3000 
    116 H116       30.0703    2.9147   -7.1819 H         1 UNK         0.0850 
    117 H117       30.8480    5.0907   -8.0684 H         1 UNK         0.0810 
    118 H118       29.1789    5.2024   -7.5318 H         1 UNK         0.0810 
    119 H119       29.5513    5.1143   -9.2523 H         1 UNK         0.0810 
    120 H120       29.5246    2.8760  -10.7025 H         1 UNK         0.3040 
    121 H121       32.1986    2.2884  -11.5059 H         1 UNK         0.0766 
    122 H122       31.1099    1.7174  -13.6905 H         1 UNK         0.0812 
    123 H123       30.4805    3.2218  -13.0407 H         1 UNK         0.0812 
    124 H124       29.5290    1.7418  -12.9198 H         1 UNK         0.0812 
    125 H125       29.8538    0.2445  -10.0499 H         1 UNK         0.3205 
    126 H126       30.7823   -2.3224  -10.9892 H         1 UNK         0.0754 
    127 H127       29.1941   -1.5077   -8.4956 H         1 UNK         0.0769 
    128 H128       29.4039   -3.1590   -9.0620 H         1 UNK         0.0769 
    129 H129       28.5055   -2.0098  -10.0401 H         1 UNK         0.0769 
    130 H130       31.9613   -0.0469   -8.5560 H         1 UNK         0.2981 
    131 H131       33.4746   -2.0162   -7.0401 H         1 UNK         0.0541 
    132 H132       35.7639   -2.3432   -7.0907 H         1 UNK         0.3459 
    133 H133       36.7370   -1.7609   -8.4155 H         1 UNK         0.3459 
    134 H134       33.4702    1.0458   -6.9613 H         1 UNK         0.0612 
    135 H135       34.4276    0.0424   -5.9104 H         1 UNK         0.0612 
    136 H136       33.3907    0.7646   -3.5410 H         1 UNK         0.0624 
    137 H137       33.7419   -0.9259   -3.8263 H         1 UNK         0.0624 
@<TRIPOS>BOND
     1    1    2 1    
     2    1   72 1    
     3    1   73 1    
     4    1   74 1    
     5    2    3 2    
     6    2    4 am   BACKBONE|DICT|INTERRES
     7    4    5 1    
     8    4   75 1    
     9    5    6 1    
    10    5   35 1    
    11    5   76 1    
    12    6    7 1    
    13    6   77 1    
    14    6   78 1    
    15    7    8 1    
    16    8    9 1    
    17    8   79 1    
    18    8   80 1    
    19    9   10 ar   
    20    9   14 ar   
    21   10   11 ar   
    22   10   81 1    
    23   11   12 ar   
    24   11   71 1    
    25   12   13 ar   
    26   12   82 1    
    27   13   14 ar   
    28   13   15 1    
    29   14   83 1    
    30   15   16 1    
    31   15   84 1    
    32   15   85 1    
    33   16   17 1    
    34   17   18 1    
    35   17   86 1    
    36   17   87 1    
    37   18   19 1    
    38   18   37 1    
    39   18   88 1    
    40   19   20 am   BACKBONE|DICT|INTERRES
    41   19   89 1    
    42   20   21 2    
    43   20   22 1    
    44   22   23 1    
    45   22   24 1    
    46   22   90 1    
    47   23   91 1    
    48   23   92 1    
    49   23   93 1    
    50   24   25 am   BACKBONE|DICT|INTERRES
    51   24   94 1    
    52   25   26 2    
    53   25   27 1    
    54   27   28 1    
    55   27   29 1    
    56   27   95 1    
    57   28   96 1    
    58   28   97 1    
    59   28   98 1    
    60   29   30 am   BACKBONE|DICT|INTERRES
    61   29   99 1    
    62   30   31 2    
    63   30   32 1    
    64   32   33 1    
    65   32   34 1    
    66   32  100 1    
    67   33  101 1    
    68   33  102 1    
    69   33  103 1    
    70   34   35 am   BACKBONE|DICT|INTERRES
    71   34  104 1    
    72   35   36 2    
    73   37   38 2    
    74   37   39 am   BACKBONE|DICT|INTERRES
    75   39   40 1    
    76   39  105 1    
    77   40   41 1    
    78   40   42 1    
    79   40  106 1    
    80   41  107 1    
    81   41  108 1    
    82   41  109 1    
    83   42   43 2    
    84   42   44 am   BACKBONE|DICT|INTERRES
    85   44   45 1    
    86   44  110 1    
    87   45   46 1    
    88   45   47 1    
    89   45  111 1    
    90   46  112 1    
    91   46  113 1    
    92   46  114 1    
    93   47   48 2    
    94   47   49 am   BACKBONE|DICT|INTERRES
    95   49   50 1    
    96   49  115 1    
    97   50   51 1    
    98   50   52 1    
    99   50  116 1    
   100   51  117 1    
   101   51  118 1    
   102   51  119 1    
   103   52   53 2    
   104   52   54 am   BACKBONE|DICT|INTERRES
   105   54   55 1    
   106   54  120 1    
   107   55   56 1    
   108   55   57 1    
   109   55  121 1    
   110   56  122 1    
   111   56  123 1    
   112   56  124 1    
   113   57   58 2    
   114   57   59 am   BACKBONE|DICT|INTERRES
   115   59   60 1    
   116   59  125 1    
   117   60   61 1    
   118   60   62 1    
   119   60  126 1    
   120   61  127 1    
   121   61  128 1    
   122   61  129 1    
   123   62   63 2    
   124   62   64 am   BACKBONE|DICT|INTERRES
   125   64   65 1    
   126   64  130 1    
   127   65   66 1    
   128   65   69 1    
   129   65  131 1    
   130   66   67 am   BACKBONE|DICT|INTERRES
   131   66   68 2    
   132   67  132 1    
   133   67  133 1    
   134   69   70 1    
   135   69  134 1    
   136   69  135 1    
   137   70   71 1    
   138   71  136 1    
   139   71  137 1    
@<TRIPOS>SUBSTRUCTURE
     1 UNK         1 GROUP             0       ****    0 ROOT    
