@<TRIPOS>MOLECULE
3R137
137   139    1
SMALL
USER_CHARGES


@<TRIPOS>ATOM
      1 CA         29.8629   -0.4019    1.9026 C.3       0 UNK        -0.2020 
      2 C          28.4873   -0.6421    2.5202 C.2       0 UNK         0.4855 
      3 O          28.2149   -0.1303    3.6044 O.2       0 UNK        -0.5197 
      4 N          27.5880   -1.3962    1.8776 N.am      1 UNK        -0.4892 
      5 CA         27.7317   -2.0291    0.5664 C.3       1 UNK         0.0835 
      6 C6         28.4621   -3.4004    0.6476 C.3       12 UNK        -0.0855 
      7 S7         29.2967   -4.0306   -0.8619 S.3       12 UNK        -0.2931 
      8 C8         29.4571   -2.6305   -2.0287 C.3       12 UNK         0.0378 
      9 C9         29.9772   -3.1074   -3.3762 C.ar      12 UNK        -0.0802 
     10 C10        31.2141   -2.6727   -3.8611 C.ar      12 UNK        -0.0944 
     11 C11        31.6986   -3.1435   -5.0854 C.ar      12 UNK        -0.0787 
     12 C12        30.9317   -4.0471   -5.8309 C.ar      12 UNK        -0.0862 
     13 C13        29.6949   -4.4925   -5.3535 C.ar      12 UNK        -0.0733 
     14 C14        29.2204   -4.0065   -4.1330 C.ar      12 UNK        -0.0832 
     15 C15        28.9106   -5.5631   -6.1046 C.3       12 UNK         0.0240 
     16 S16        27.9619   -4.9166   -7.5173 S.3       12 UNK        -0.2522 
     17 C17        26.6420   -3.9507   -6.7021 C.3       12 UNK        -0.0967 
     18 CA         26.3784   -2.5993   -7.4087 C.3       5 UNK         0.0660 
     19 N          25.1695   -1.9404   -6.9114 N.am      5 UNK        -0.4015 
     20 C          24.5561   -0.9194   -7.5283 C.2       4 UNK         0.4946 
     21 O          24.9136   -0.4531   -8.6102 O.2       4 UNK        -0.5353 
     22 CA         23.3635   -0.2840   -6.7942 C.3       4 UNK         0.0277 
     23 CB         22.0858   -1.1096   -7.0135 C.3       4 UNK        -0.1981 
     24 N          23.6045   -0.1152   -5.3588 N.am      4 UNK        -0.4209 
     25 C          24.5453    0.6890   -4.8435 C.2       3 UNK         0.4942 
     26 O          25.2884    1.3964   -5.5204 O.2       3 UNK        -0.5208 
     27 CA         24.7175    0.6779   -3.3173 C.3       3 UNK         0.0250 
     28 CB         23.7507    1.6752   -2.6597 C.3       3 UNK        -0.1990 
     29 N          24.5649   -0.6388   -2.6903 N.am      3 UNK        -0.4232 
     30 C          25.2533   -1.7430   -3.0103 C.2       2 UNK         0.4993 
     31 O          26.0409   -1.8220   -3.9569 O.2       2 UNK        -0.5286 
     32 CA         25.0844   -2.9431   -2.0665 C.3       2 UNK         0.0209 
     33 CB         25.0526   -4.2747   -2.8365 C.3       2 UNK        -0.1931 
     34 N          26.2013   -2.9512   -1.1234 N.am      2 UNK        -0.4546 
     35 C          26.3417   -2.0986   -0.1003 C.2       1 UNK         0.5154 
     36 O          25.4333   -1.3617    0.2936 O.2       1 UNK        -0.5181 
     37 C          27.5847   -1.6492   -7.3229 C.2       5 UNK         0.5014 
     38 O          28.2960   -1.4952   -8.3161 O.2       5 UNK        -0.5248 
     39 N          27.7582   -0.9951   -6.1641 N.am      6 UNK        -0.4434 
     40 CA         28.8226   -0.0198   -5.9239 C.3       6 UNK         0.0363 
     41 CB         28.7601    0.4830   -4.4744 C.3       6 UNK        -0.1936 
     42 C          28.7924    1.1584   -6.9112 C.2       6 UNK         0.5081 
     43 O          29.8448    1.5371   -7.4212 O.2       6 UNK        -0.5248 
     44 N          27.5940    1.6862   -7.1978 N.am      7 UNK        -0.4718 
     45 CA         27.3663    2.7287   -8.1992 C.3       7 UNK         0.0273 
     46 CB         25.9263    3.2542   -8.0877 C.3       7 UNK        -0.1935 
     47 C          27.6613    2.2554   -9.6313 C.2       7 UNK         0.5018 
     48 O          28.3418    2.9710  -10.3665 O.2       7 UNK        -0.5186 
     49 N          27.1643    1.0642   -9.9988 N.am      8 UNK        -0.4240 
     50 CA         27.3550    0.4628  -11.3232 C.3       8 UNK         0.0235 
     51 CB         26.4642   -0.7818  -11.4657 C.3       8 UNK        -0.2000 
     52 C          28.8214    0.1153  -11.6272 C.2       8 UNK         0.4941 
     53 O          29.2917    0.3911  -12.7317 O.2       8 UNK        -0.5273 
     54 N          29.5181   -0.4689  -10.6443 N.am      9 UNK        -0.4262 
     55 CA         30.9332   -0.8354  -10.7336 C.3       9 UNK         0.0264 
     56 CB         31.2067   -1.9780   -9.7432 C.3       9 UNK        -0.1955 
     57 C          31.8949    0.3463  -10.4971 C.2       9 UNK         0.5031 
     58 O          33.0879    0.1974  -10.7666 O.2       9 UNK        -0.5390 
     59 N          31.3732    1.4823  -10.0071 N.am      10 UNK        -0.4204 
     60 CA         32.0839    2.7113   -9.6289 C.3       10 UNK         0.0237 
     61 CB         32.7068    3.3961  -10.8644 C.3       10 UNK        -0.1985 
     62 C          33.0901    2.4794   -8.4833 C.2       10 UNK         0.4970 
     63 O          34.2279    2.9504   -8.5467 O.2       10 UNK        -0.4914 
     64 N          32.6448    1.7410   -7.4623 N.am      11 UNK        -0.4285 
     65 CA         33.4088    1.4032   -6.2557 C.3       11 UNK         0.1007 
     66 C          33.4442    2.5790   -5.2439 C.2       11 UNK         0.5703 
     67 N          34.4804    2.6520   -4.4186 N.am      11 UNK        -0.7361 
     68 O          32.5340    3.4034   -5.1733 O.2       11 UNK        -0.4986 
     69 C69        32.8709    0.1078   -5.5937 C.3       12 UNK        -0.0947 
     70 S70        33.0025   -1.3194   -6.7212 S.3       12 UNK        -0.2240 
     71 C71        33.0778   -2.7260   -5.5747 C.3       12 UNK         0.0194 
     72 H72        29.7909    0.3063    1.0781 H         1 UNK         0.0906 
     73 H73        30.5425    0.0183    2.6433 H         1 UNK         0.0906 
     74 H74        30.3129   -1.3219    1.5344 H         1 UNK         0.0906 
     75 H75        26.6535   -1.4732    2.2598 H         1 UNK         0.3140 
     76 H76        28.3070   -1.3385   -0.0482 H         1 UNK         0.1085 
     77 H77        29.2371   -3.3587    1.4130 H         1 UNK         0.0836 
     78 H78        27.7771   -4.1722    1.0040 H         1 UNK         0.0836 
     79 H79        28.4968   -2.1453   -2.2020 H         1 UNK         0.0731 
     80 H80        30.1229   -1.8783   -1.5994 H         1 UNK         0.0731 
     81 H81        31.8108   -1.9842   -3.2786 H         1 UNK         0.1312 
     82 H82        31.3110   -4.4266   -6.7699 H         1 UNK         0.1406 
     83 H83        28.2754   -4.3585   -3.7461 H         1 UNK         0.1631 
     84 H84        28.2321   -6.0875   -5.4300 H         1 UNK         0.0717 
     85 H85        29.6055   -6.3187   -6.4737 H         1 UNK         0.0717 
     86 H86        25.7366   -4.5593   -6.7165 H         1 UNK         0.0934 
     87 H87        26.8786   -3.7933   -5.6503 H         1 UNK         0.0934 
     88 H88        26.2097   -2.8104   -8.4672 H         1 UNK         0.0739 
     89 H89        24.8637   -2.2008   -5.9850 H         1 UNK         0.3093 
     90 H90        23.2057    0.7079   -7.2236 H         1 UNK         0.0818 
     91 H91        21.2167   -0.6193   -6.5746 H         1 UNK         0.0819 
     92 H92        21.8812   -1.2337   -8.0780 H         1 UNK         0.0819 
     93 H93        22.1645   -2.1067   -6.5787 H         1 UNK         0.0819 
     94 H94        23.0344   -0.6563   -4.7252 H         1 UNK         0.3041 
     95 H95        25.7354    1.0107   -3.1070 H         1 UNK         0.0784 
     96 H96        23.8605    2.6699   -3.0943 H         1 UNK         0.0793 
     97 H97        22.7098    1.3757   -2.7888 H         1 UNK         0.0793 
     98 H98        23.9436    1.7692   -1.5908 H         1 UNK         0.0793 
     99 H99        23.9854   -0.6678   -1.8627 H         1 UNK         0.3024 
    100 H100       24.1454   -2.8440   -1.5175 H         1 UNK         0.1171 
    101 H101       24.2329   -4.2883   -3.5557 H         1 UNK         0.0786 
    102 H102       24.9039   -5.1170   -2.1607 H         1 UNK         0.0786 
    103 H103       25.9733   -4.4520   -3.3905 H         1 UNK         0.0786 
    104 H104       26.9914   -3.5348   -1.3644 H         1 UNK         0.2977 
    105 H105       27.1300   -1.1970   -5.3893 H         1 UNK         0.3127 
    106 H106       29.7677   -0.5476   -6.0659 H         1 UNK         0.0770 
    107 H107       27.8319    1.0178   -4.2745 H         1 UNK         0.0814 
    108 H108       29.5833    1.1675   -4.2647 H         1 UNK         0.0814 
    109 H109       28.8329   -0.3402   -3.7661 H         1 UNK         0.0814 
    110 H110       26.7769    1.3609   -6.6855 H         1 UNK         0.2983 
    111 H111       28.0467    3.5543   -7.9788 H         1 UNK         0.0947 
    112 H112       25.7342    4.0326   -8.8273 H         1 UNK         0.0806 
    113 H113       25.7392    3.6874   -7.1050 H         1 UNK         0.0806 
    114 H114       25.1937    2.4617   -8.2467 H         1 UNK         0.0806 
    115 H115       26.5955    0.5421   -9.3391 H         1 UNK         0.3000 
    116 H116       27.0319    1.1952  -12.0660 H         1 UNK         0.0850 
    117 H117       26.5893   -1.2436  -12.4460 H         1 UNK         0.0810 
    118 H118       25.4095   -0.5273  -11.3600 H         1 UNK         0.0810 
    119 H119       26.7021   -1.5362  -10.7148 H         1 UNK         0.0810 
    120 H120       29.0399   -0.7116   -9.7754 H         1 UNK         0.3040 
    121 H121       31.1337   -1.2114  -11.7391 H         1 UNK         0.0766 
    122 H122       32.2575   -2.2704   -9.7530 H         1 UNK         0.0812 
    123 H123       30.6193   -2.8631   -9.9873 H         1 UNK         0.0812 
    124 H124       30.9547   -1.6876   -8.7232 H         1 UNK         0.0812 
    125 H125       30.3861    1.4762   -9.7841 H         1 UNK         0.3205 
    126 H126       31.3235    3.3851   -9.2305 H         1 UNK         0.0754 
    127 H127       33.1243    4.3688  -10.6017 H         1 UNK         0.0769 
    128 H128       31.9607    3.5632  -11.6413 H         1 UNK         0.0769 
    129 H129       33.5136    2.8025  -11.2954 H         1 UNK         0.0769 
    130 H130       31.6608    1.4804   -7.4562 H         1 UNK         0.2981 
    131 H131       34.4395    1.2139   -6.5631 H         1 UNK         0.0541 
    132 H132       35.2291    1.9779   -4.4582 H         1 UNK         0.3459 
    133 H133       34.5176    3.4013   -3.7456 H         1 UNK         0.3459 
    134 H134       31.8309    0.2277   -5.2897 H         1 UNK         0.0612 
    135 H135       33.4348   -0.1155   -4.6864 H         1 UNK         0.0612 
    136 H136       33.5468   -3.5645   -6.0911 H         1 UNK         0.0624 
    137 H137       33.7321   -2.4883   -4.7350 H         1 UNK         0.0624 
@<TRIPOS>BOND
     1    1    2 1    
     2    1   72 1    
     3    1   73 1    
     4    1   74 1    
     5    2    3 2    
     6    2    4 am   BACKBONE|DICT|INTERRES
     7    4    5 1    
     8    4   75 1    
     9    5    6 1    
    10    5   35 1    
    11    5   76 1    
    12    6    7 1    
    13    6   77 1    
    14    6   78 1    
    15    7    8 1    
    16    8    9 1    
    17    8   79 1    
    18    8   80 1    
    19    9   10 ar   
    20    9   14 ar   
    21   10   11 ar   
    22   10   81 1    
    23   11   12 ar   
    24   11   71 1    
    25   12   13 ar   
    26   12   82 1    
    27   13   14 ar   
    28   13   15 1    
    29   14   83 1    
    30   15   16 1    
    31   15   84 1    
    32   15   85 1    
    33   16   17 1    
    34   17   18 1    
    35   17   86 1    
    36   17   87 1    
    37   18   19 1    
    38   18   37 1    
    39   18   88 1    
    40   19   20 am   BACKBONE|DICT|INTERRES
    41   19   89 1    
    42   20   21 2    
    43   20   22 1    
    44   22   23 1    
    45   22   24 1    
    46   22   90 1    
    47   23   91 1    
    48   23   92 1    
    49   23   93 1    
    50   24   25 am   BACKBONE|DICT|INTERRES
    51   24   94 1    
    52   25   26 2    
    53   25   27 1    
    54   27   28 1    
    55   27   29 1    
    56   27   95 1    
    57   28   96 1    
    58   28   97 1    
    59   28   98 1    
    60   29   30 am   BACKBONE|DICT|INTERRES
    61   29   99 1    
    62   30   31 2    
    63   30   32 1    
    64   32   33 1    
    65   32   34 1    
    66   32  100 1    
    67   33  101 1    
    68   33  102 1    
    69   33  103 1    
    70   34   35 am   BACKBONE|DICT|INTERRES
    71   34  104 1    
    72   35   36 2    
    73   37   38 2    
    74   37   39 am   BACKBONE|DICT|INTERRES
    75   39   40 1    
    76   39  105 1    
    77   40   41 1    
    78   40   42 1    
    79   40  106 1    
    80   41  107 1    
    81   41  108 1    
    82   41  109 1    
    83   42   43 2    
    84   42   44 am   BACKBONE|DICT|INTERRES
    85   44   45 1    
    86   44  110 1    
    87   45   46 1    
    88   45   47 1    
    89   45  111 1    
    90   46  112 1    
    91   46  113 1    
    92   46  114 1    
    93   47   48 2    
    94   47   49 am   BACKBONE|DICT|INTERRES
    95   49   50 1    
    96   49  115 1    
    97   50   51 1    
    98   50   52 1    
    99   50  116 1    
   100   51  117 1    
   101   51  118 1    
   102   51  119 1    
   103   52   53 2    
   104   52   54 am   BACKBONE|DICT|INTERRES
   105   54   55 1    
   106   54  120 1    
   107   55   56 1    
   108   55   57 1    
   109   55  121 1    
   110   56  122 1    
   111   56  123 1    
   112   56  124 1    
   113   57   58 2    
   114   57   59 am   BACKBONE|DICT|INTERRES
   115   59   60 1    
   116   59  125 1    
   117   60   61 1    
   118   60   62 1    
   119   60  126 1    
   120   61  127 1    
   121   61  128 1    
   122   61  129 1    
   123   62   63 2    
   124   62   64 am   BACKBONE|DICT|INTERRES
   125   64   65 1    
   126   64  130 1    
   127   65   66 1    
   128   65   69 1    
   129   65  131 1    
   130   66   67 am   BACKBONE|DICT|INTERRES
   131   66   68 2    
   132   67  132 1    
   133   67  133 1    
   134   69   70 1    
   135   69  134 1    
   136   69  135 1    
   137   70   71 1    
   138   71  136 1    
   139   71  137 1    
@<TRIPOS>SUBSTRUCTURE
     1 UNK         1 GROUP             0       ****    0 ROOT    
