@<TRIPOS>MOLECULE
3R137
137   139    1
SMALL
USER_CHARGES


@<TRIPOS>ATOM
      1 CA         28.8011   -0.5212    3.9409 C.3       0 UNK        -0.2020 
      2 C          29.0500   -0.5883    2.4414 C.2       0 UNK         0.4855 
      3 O          29.9528    0.0817    1.9398 O.2       0 UNK        -0.5197 
      4 N          28.2565   -1.3881    1.7232 N.am      1 UNK        -0.4892 
      5 CA         28.3022   -1.5620    0.2728 C.3       1 UNK         0.0835 
      6 C6         29.4628   -2.4922   -0.1699 C.3       12 UNK        -0.0855 
      7 S7         29.9227   -2.2491   -1.9171 S.3       12 UNK        -0.2931 
      8 C8         31.0595   -3.6485   -2.1482 C.3       12 UNK         0.0378 
      9 C9         31.3629   -3.8632   -3.6213 C.ar      12 UNK        -0.0802 
     10 C10        32.5961   -3.4839   -4.1621 C.ar      12 UNK        -0.0944 
     11 C11        32.8629   -3.6810   -5.5208 C.ar      12 UNK        -0.0787 
     12 C12        31.8889   -4.2667   -6.3350 C.ar      12 UNK        -0.0862 
     13 C13        30.6541   -4.6488   -5.8037 C.ar      12 UNK        -0.0733 
     14 C14        30.3986   -4.4496   -4.4453 C.ar      12 UNK        -0.0832 
     15 C15        29.5999   -5.2805   -6.6979 C.3       12 UNK         0.0240 
     16 S16        28.8082   -4.0476   -7.7726 S.3       12 UNK        -0.2522 
     17 C17        27.7747   -3.1208   -6.5894 C.3       12 UNK        -0.0967 
     18 CA         27.1210   -1.8929   -7.2749 C.3       5 UNK         0.0660 
     19 N          25.7009   -1.7448   -6.9414 N.am      5 UNK        -0.4015 
     20 C          24.8305   -1.0532   -7.6907 C.2       4 UNK         0.4946 
     21 O          25.1457   -0.4459   -8.7135 O.2       4 UNK        -0.5353 
     22 CA         23.3745   -1.0025   -7.2043 C.3       4 UNK         0.0277 
     23 CB         22.6543   -2.3301   -7.4910 C.3       4 UNK        -0.1981 
     24 N          23.2772   -0.6791   -5.7809 N.am      4 UNK        -0.4209 
     25 C          23.5992    0.5123   -5.2576 C.2       3 UNK         0.4942 
     26 O          23.9549    1.4831   -5.9254 O.2       3 UNK        -0.5208 
     27 CA         23.5397    0.6359   -3.7255 C.3       3 UNK         0.0250 
     28 CB         22.1349    1.0698   -3.2766 C.3       3 UNK        -0.1990 
     29 N          23.9346   -0.5761   -2.9950 N.am      3 UNK        -0.4232 
     30 C          25.1215   -1.1886   -3.1051 C.2       2 UNK         0.4993 
     31 O          25.9869   -0.8791   -3.9271 O.2       2 UNK        -0.5286 
     32 CA         25.4064   -2.3402   -2.1408 C.3       2 UNK         0.0209 
     33 CB         25.5150   -3.6751   -2.8978 C.3       2 UNK        -0.1931 
     34 N          26.6808   -2.0403   -1.4979 N.am      2 UNK        -0.4546 
     35 C          26.9183   -2.0646   -0.1840 C.2       1 UNK         0.5154 
     36 O          26.0971   -2.4519    0.6545 O.2       1 UNK        -0.5181 
     37 C          27.9083   -0.5888   -7.0399 C.2       5 UNK         0.5014 
     38 O          28.8131   -0.2818   -7.8155 O.2       5 UNK        -0.5248 
     39 N          27.5101    0.1976   -6.0299 N.am      6 UNK        -0.4434 
     40 CA         28.0037    1.5554   -5.7807 C.3       6 UNK         0.0363 
     41 CB         27.4416    2.0618   -4.4438 C.3       6 UNK        -0.1936 
     42 C          27.6875    2.5505   -6.9149 C.2       6 UNK         0.5081 
     43 O          28.3762    3.5637   -7.0252 O.2       6 UNK        -0.5248 
     44 N          26.6773    2.2521   -7.7427 N.am      7 UNK        -0.4718 
     45 CA         26.3799    2.9817   -8.9729 C.3       7 UNK         0.0273 
     46 CB         24.8579    3.0355   -9.1886 C.3       7 UNK        -0.1935 
     47 C          27.0904    2.3406  -10.1756 C.2       7 UNK         0.5018 
     48 O          27.7751    3.0474  -10.9151 O.2       7 UNK        -0.5186 
     49 N          26.9044    1.0252  -10.3621 N.am      8 UNK        -0.4240 
     50 CA         27.3530    0.2813  -11.5427 C.3       8 UNK         0.0235 
     51 CB         26.6383   -1.0792  -11.5954 C.3       8 UNK        -0.2000 
     52 C          28.8755    0.0919  -11.6385 C.2       8 UNK         0.4941 
     53 O          29.4348    0.2909  -12.7178 O.2       8 UNK        -0.5273 
     54 N          29.5132   -0.3064  -10.5307 N.am      9 UNK        -0.4262 
     55 CA         30.9492   -0.5948  -10.4523 C.3       9 UNK         0.0264 
     56 CB         31.1484   -1.9294   -9.7122 C.3       9 UNK        -0.1955 
     57 C          31.7328    0.5216   -9.7447 C.2       9 UNK         0.5031 
     58 O          32.9619    0.4573   -9.7157 O.2       9 UNK        -0.5390 
     59 N          31.0264    1.4970   -9.1550 N.am      10 UNK        -0.4204 
     60 CA         31.5050    2.6291   -8.3483 C.3       10 UNK         0.0237 
     61 CB         32.5203    3.5024   -9.1123 C.3       10 UNK        -0.1985 
     62 C          32.0373    2.2308   -6.9594 C.2       10 UNK         0.4970 
     63 O          31.7779    2.9499   -5.9944 O.2       10 UNK        -0.4914 
     64 N          32.7586    1.1080   -6.8704 N.am      11 UNK        -0.4285 
     65 CA         33.2802    0.5350   -5.6214 C.3       11 UNK         0.1007 
     66 C          32.2092   -0.0573   -4.6636 C.2       11 UNK         0.5703 
     67 N          31.0135   -0.4005   -5.1272 N.am      11 UNK        -0.7361 
     68 O          32.4717   -0.1838   -3.4705 O.2       11 UNK        -0.4986 
     69 C69        34.4502   -0.4530   -5.8756 C.3       12 UNK        -0.0947 
     70 S70        34.0929   -1.7604   -7.1025 S.3       12 UNK        -0.2240 
     71 C71        34.2059   -3.2867   -6.1162 C.3       12 UNK         0.0194 
     72 H72        29.6936   -0.8317    4.4835 H         1 UNK         0.0906 
     73 H73        28.5605    0.4997    4.2363 H         1 UNK         0.0906 
     74 H74        27.9772   -1.1659    4.2469 H         1 UNK         0.0906 
     75 H75        27.4833   -1.8817    2.1562 H         1 UNK         0.3140 
     76 H76        28.4453   -0.5729   -0.1695 H         1 UNK         0.1085 
     77 H77        30.3570   -2.2893    0.4217 H         1 UNK         0.0836 
     78 H78        29.2151   -3.5401    0.0114 H         1 UNK         0.0836 
     79 H79        31.9758   -3.4649   -1.5849 H         1 UNK         0.0731 
     80 H80        30.6169   -4.5569   -1.7368 H         1 UNK         0.0731 
     81 H81        33.3425   -3.0246   -3.5285 H         1 UNK         0.1312 
     82 H82        32.0885   -4.4163   -7.3875 H         1 UNK         0.1406 
     83 H83        29.4440   -4.7390   -4.0269 H         1 UNK         0.1631 
     84 H84        28.8386   -5.7935   -6.1082 H         1 UNK         0.0717 
     85 H85        30.0679   -6.0426   -7.3226 H         1 UNK         0.0717 
     86 H86        27.0149   -3.8125   -6.2223 H         1 UNK         0.0934 
     87 H87        28.3645   -2.8354   -5.7157 H         1 UNK         0.0934 
     88 H88        27.1462   -2.0577   -8.3543 H         1 UNK         0.0739 
     89 H89        25.3870   -2.1551   -6.0745 H         1 UNK         0.3093 
     90 H90        22.8673   -0.2144   -7.7656 H         1 UNK         0.0818 
     91 H91        21.5972   -2.2706   -7.2312 H         1 UNK         0.0819 
     92 H92        22.7109   -2.5818   -8.5511 H         1 UNK         0.0819 
     93 H93        23.0899   -3.1613   -6.9353 H         1 UNK         0.0819 
     94 H94        22.9810   -1.4142   -5.1556 H         1 UNK         0.3041 
     95 H95        24.2411    1.4227   -3.4411 H         1 UNK         0.0784 
     96 H96        21.8253    1.9815   -3.7901 H         1 UNK         0.0793 
     97 H97        21.3869    0.3054   -3.4910 H         1 UNK         0.0793 
     98 H98        22.1058    1.2790   -2.2071 H         1 UNK         0.0793 
     99 H99        23.2812   -0.9075   -2.2995 H         1 UNK         0.3024 
    100 H100       24.6040   -2.4070   -1.4024 H         1 UNK         0.1171 
    101 H101       24.5830   -3.9114   -3.4126 H         1 UNK         0.0786 
    102 H102       25.7258   -4.4976   -2.2142 H         1 UNK         0.0786 
    103 H103       26.3090   -3.6539   -3.6455 H         1 UNK         0.0786 
    104 H104       27.4025   -1.6957   -2.1198 H         1 UNK         0.2977 
    105 H105       26.8099   -0.1556   -5.3784 H         1 UNK         0.3127 
    106 H106       29.0903    1.5054   -5.6949 H         1 UNK         0.0770 
    107 H107       26.3545    2.1368   -4.4706 H         1 UNK         0.0814 
    108 H108       27.8326    3.0519   -4.2063 H         1 UNK         0.0814 
    109 H109       27.7139    1.3992   -3.6221 H         1 UNK         0.0814 
    110 H110       26.1374    1.4149   -7.5672 H         1 UNK         0.2983 
    111 H111       26.7349    4.0113   -8.8875 H         1 UNK         0.0947 
    112 H112       24.6124    3.5886  -10.0961 H         1 UNK         0.0806 
    113 H113       24.3612    3.5373   -8.3578 H         1 UNK         0.0806 
    114 H114       24.4185    2.0424   -9.2831 H         1 UNK         0.0806 
    115 H115       26.3008    0.5201   -9.7141 H         1 UNK         0.3000 
    116 H116       27.0430    0.8504  -12.4220 H         1 UNK         0.0850 
    117 H117       26.9222   -1.6360  -12.4895 H         1 UNK         0.0810 
    118 H118       25.5552   -0.9571  -11.6199 H         1 UNK         0.0810 
    119 H119       26.8836   -1.6997  -10.7333 H         1 UNK         0.0810 
    120 H120       28.9972   -0.4102   -9.6592 H         1 UNK         0.3040 
    121 H121       31.3704   -0.6999  -11.4541 H         1 UNK         0.0766 
    122 H122       32.1999   -2.2192   -9.7043 H         1 UNK         0.0812 
    123 H123       30.5939   -2.7371  -10.1899 H         1 UNK         0.0812 
    124 H124       30.8242   -1.8695   -8.6724 H         1 UNK         0.0812 
    125 H125       30.0209    1.3997   -9.1930 H         1 UNK         0.3205 
    126 H126       30.6264    3.2498   -8.1778 H         1 UNK         0.0754 
    127 H127       32.7497    4.4081   -8.5495 H         1 UNK         0.0769 
    128 H128       32.1266    3.8130  -10.0801 H         1 UNK         0.0769 
    129 H129       33.4640    2.9839   -9.2832 H         1 UNK         0.0769 
    130 H130       32.9547    0.5917   -7.7219 H         1 UNK         0.2981 
    131 H131       33.7121    1.3706   -5.0671 H         1 UNK         0.0541 
    132 H132       30.3511   -0.8010   -4.4831 H         1 UNK         0.3459 
    133 H133       30.7927   -0.3185   -6.1066 H         1 UNK         0.3459 
    134 H134       34.7913   -0.8976   -4.9392 H         1 UNK         0.0612 
    135 H135       35.3066    0.1065   -6.2544 H         1 UNK         0.0612 
    136 H136       34.5526   -4.0902   -6.7676 H         1 UNK         0.0624 
    137 H137       34.9658   -3.1823   -5.3406 H         1 UNK         0.0624 
@<TRIPOS>BOND
     1    1    2 1    
     2    1   72 1    
     3    1   73 1    
     4    1   74 1    
     5    2    3 2    
     6    2    4 am   BACKBONE|DICT|INTERRES
     7    4    5 1    
     8    4   75 1    
     9    5    6 1    
    10    5   35 1    
    11    5   76 1    
    12    6    7 1    
    13    6   77 1    
    14    6   78 1    
    15    7    8 1    
    16    8    9 1    
    17    8   79 1    
    18    8   80 1    
    19    9   10 ar   
    20    9   14 ar   
    21   10   11 ar   
    22   10   81 1    
    23   11   12 ar   
    24   11   71 1    
    25   12   13 ar   
    26   12   82 1    
    27   13   14 ar   
    28   13   15 1    
    29   14   83 1    
    30   15   16 1    
    31   15   84 1    
    32   15   85 1    
    33   16   17 1    
    34   17   18 1    
    35   17   86 1    
    36   17   87 1    
    37   18   19 1    
    38   18   37 1    
    39   18   88 1    
    40   19   20 am   BACKBONE|DICT|INTERRES
    41   19   89 1    
    42   20   21 2    
    43   20   22 1    
    44   22   23 1    
    45   22   24 1    
    46   22   90 1    
    47   23   91 1    
    48   23   92 1    
    49   23   93 1    
    50   24   25 am   BACKBONE|DICT|INTERRES
    51   24   94 1    
    52   25   26 2    
    53   25   27 1    
    54   27   28 1    
    55   27   29 1    
    56   27   95 1    
    57   28   96 1    
    58   28   97 1    
    59   28   98 1    
    60   29   30 am   BACKBONE|DICT|INTERRES
    61   29   99 1    
    62   30   31 2    
    63   30   32 1    
    64   32   33 1    
    65   32   34 1    
    66   32  100 1    
    67   33  101 1    
    68   33  102 1    
    69   33  103 1    
    70   34   35 am   BACKBONE|DICT|INTERRES
    71   34  104 1    
    72   35   36 2    
    73   37   38 2    
    74   37   39 am   BACKBONE|DICT|INTERRES
    75   39   40 1    
    76   39  105 1    
    77   40   41 1    
    78   40   42 1    
    79   40  106 1    
    80   41  107 1    
    81   41  108 1    
    82   41  109 1    
    83   42   43 2    
    84   42   44 am   BACKBONE|DICT|INTERRES
    85   44   45 1    
    86   44  110 1    
    87   45   46 1    
    88   45   47 1    
    89   45  111 1    
    90   46  112 1    
    91   46  113 1    
    92   46  114 1    
    93   47   48 2    
    94   47   49 am   BACKBONE|DICT|INTERRES
    95   49   50 1    
    96   49  115 1    
    97   50   51 1    
    98   50   52 1    
    99   50  116 1    
   100   51  117 1    
   101   51  118 1    
   102   51  119 1    
   103   52   53 2    
   104   52   54 am   BACKBONE|DICT|INTERRES
   105   54   55 1    
   106   54  120 1    
   107   55   56 1    
   108   55   57 1    
   109   55  121 1    
   110   56  122 1    
   111   56  123 1    
   112   56  124 1    
   113   57   58 2    
   114   57   59 am   BACKBONE|DICT|INTERRES
   115   59   60 1    
   116   59  125 1    
   117   60   61 1    
   118   60   62 1    
   119   60  126 1    
   120   61  127 1    
   121   61  128 1    
   122   61  129 1    
   123   62   63 2    
   124   62   64 am   BACKBONE|DICT|INTERRES
   125   64   65 1    
   126   64  130 1    
   127   65   66 1    
   128   65   69 1    
   129   65  131 1    
   130   66   67 am   BACKBONE|DICT|INTERRES
   131   66   68 2    
   132   67  132 1    
   133   67  133 1    
   134   69   70 1    
   135   69  134 1    
   136   69  135 1    
   137   70   71 1    
   138   71  136 1    
   139   71  137 1    
@<TRIPOS>SUBSTRUCTURE
     1 UNK         1 GROUP             0       ****    0 ROOT    
