@<TRIPOS>MOLECULE
3R137
137   139    1
SMALL
USER_CHARGES


@<TRIPOS>ATOM
      1 CA         23.7998   -5.4825   -3.5298 C.3       0 UNK        -0.2020 
      2 C          24.6080   -4.6577   -2.5402 C.2       0 UNK         0.4855 
      3 O          24.0334   -3.8820   -1.7761 O.2       0 UNK        -0.5197 
      4 N          25.9385   -4.8121   -2.5618 N.am      1 UNK        -0.4892 
      5 CA         26.9151   -4.1105   -1.7195 C.3       1 UNK         0.0835 
      6 C6         28.3395   -4.6442   -2.0070 C.3       12 UNK        -0.0855 
      7 S7         29.5703   -4.1032   -0.7765 S.3       12 UNK        -0.2931 
      8 C8         31.0852   -4.0749   -1.7891 C.3       12 UNK         0.0378 
      9 C9         31.1027   -2.9287   -2.7934 C.ar      12 UNK        -0.0802 
     10 C10        31.0669   -3.1857   -4.1688 C.ar      12 UNK        -0.0944 
     11 C11        31.1555   -2.1359   -5.0910 C.ar      12 UNK        -0.0787 
     12 C12        31.2679   -0.8258   -4.6229 C.ar      12 UNK        -0.0862 
     13 C13        31.2469   -0.5479   -3.2538 C.ar      12 UNK        -0.0733 
     14 C14        31.1828   -1.6073   -2.3440 C.ar      12 UNK        -0.0832 
     15 C15        31.2778    0.8908   -2.7458 C.3       12 UNK         0.0240 
     16 S16        30.1664    2.0251   -3.6540 S.3       12 UNK        -0.2522 
     17 C17        28.5735    1.1290   -3.6592 C.3       12 UNK        -0.0967 
     18 CA         28.0829    0.8374   -5.1039 C.3       5 UNK         0.0660 
     19 N          27.3059   -0.4039   -5.1877 N.am      5 UNK        -0.4015 
     20 C          26.8008   -0.9374   -6.3109 C.2       4 UNK         0.4946 
     21 O          26.9681   -0.4679   -7.4334 O.2       4 UNK        -0.5353 
     22 CA         25.8799   -2.1558   -6.1514 C.3       4 UNK         0.0277 
     23 CB         26.6852   -3.4546   -5.9778 C.3       4 UNK        -0.1981 
     24 N          24.9514   -1.9640   -5.0356 N.am      4 UNK        -0.4209 
     25 C          23.9124   -1.1144   -5.0692 C.2       3 UNK         0.4942 
     26 O          23.5658   -0.5017   -6.0785 O.2       3 UNK        -0.5208 
     27 CA         23.1570   -0.8686   -3.7516 C.3       3 UNK         0.0250 
     28 CB         21.9508   -1.8117   -3.6247 C.3       3 UNK        -0.1990 
     29 N          24.0207   -0.9967   -2.5744 N.am      3 UNK        -0.4232 
     30 C          24.9675   -0.1034   -2.2472 C.2       2 UNK         0.4993 
     31 O          25.1718    0.9329   -2.8795 O.2       2 UNK        -0.5286 
     32 CA         25.8825   -0.4488   -1.0575 C.3       2 UNK         0.0209 
     33 CB         25.2609    0.0371    0.2609 C.3       2 UNK        -0.1931 
     34 N          26.1924   -1.8795   -0.9586 N.am      2 UNK        -0.4546 
     35 C          26.8131   -2.5830   -1.9156 C.2       1 UNK         0.5154 
     36 O          27.2250   -2.0780   -2.9599 O.2       1 UNK        -0.5181 
     37 C          27.3274    2.0480   -5.6925 C.2       5 UNK         0.5014 
     38 O          27.9135    2.8283   -6.4429 O.2       5 UNK        -0.5248 
     39 N          26.0315    2.1638   -5.3663 N.am      6 UNK        -0.4434 
     40 CA         25.1253    3.1768   -5.9106 C.3       6 UNK         0.0363 
     41 CB         23.7906    3.1276   -5.1503 C.3       6 UNK        -0.1936 
     42 C          24.8877    3.0410   -7.4266 C.2       6 UNK         0.5081 
     43 O          24.7127    4.0595   -8.0965 O.2       6 UNK        -0.5248 
     44 N          24.8786    1.8032   -7.9412 N.am      7 UNK        -0.4718 
     45 CA         24.7265    1.5043   -9.3659 C.3       7 UNK         0.0273 
     46 CB         24.2396    0.0569   -9.5481 C.3       7 UNK        -0.1935 
     47 C          26.0224    1.7597  -10.1532 C.2       7 UNK         0.5018 
     48 O          25.9765    2.4397  -11.1796 O.2       7 UNK        -0.5186 
     49 N          27.1480    1.2238   -9.6651 N.am      8 UNK        -0.4240 
     50 CA         28.4727    1.3650  -10.2632 C.3       8 UNK         0.0235 
     51 CB         28.6296    0.4071  -11.4611 C.3       8 UNK        -0.2000 
     52 C          29.5288    1.0977   -9.1860 C.2       8 UNK         0.4941 
     53 O          29.7454   -0.0566   -8.8177 O.2       8 UNK        -0.5273 
     54 N          30.1784    2.1654   -8.7058 N.am      9 UNK        -0.4262 
     55 CA         31.1732    2.1205   -7.6283 C.3       9 UNK         0.0264 
     56 CB         31.4216    3.5476   -7.1138 C.3       9 UNK        -0.1955 
     57 C          32.5065    1.4462   -8.0030 C.2       9 UNK         0.5031 
     58 O          33.2755    1.1031   -7.1039 O.2       9 UNK        -0.5390 
     59 N          32.7736    1.2811   -9.3053 N.am      10 UNK        -0.4204 
     60 CA         34.0270    0.7905   -9.8875 C.3       10 UNK         0.0237 
     61 CB         34.0806    1.2262  -11.3650 C.3       10 UNK        -0.1985 
     62 C          34.2819   -0.7239   -9.7070 C.2       10 UNK         0.4970 
     63 O          34.6538   -1.3987  -10.6694 O.2       10 UNK        -0.4914 
     64 N          34.1121   -1.2313   -8.4820 N.am      11 UNK        -0.4285 
     65 CA         34.5855   -2.5568   -8.0584 C.3       11 UNK         0.1007 
     66 C          36.1259   -2.5669   -7.8531 C.2       11 UNK         0.5703 
     67 N          36.7681   -3.7104   -8.0499 N.am      11 UNK        -0.7361 
     68 O          36.7386   -1.5645   -7.4874 O.2       11 UNK        -0.4986 
     69 C69        33.8506   -3.0431   -6.7823 C.3       12 UNK        -0.0947 
     70 S70        32.1997   -3.7169   -7.1613 S.3       12 UNK        -0.2240 
     71 C71        31.0951   -2.3860   -6.5943 C.3       12 UNK         0.0194 
     72 H72        23.4705   -4.8594   -4.3607 H         1 UNK         0.0906 
     73 H73        24.3794   -6.3117   -3.9351 H         1 UNK         0.0906 
     74 H74        22.9175   -5.8966   -3.0424 H         1 UNK         0.0906 
     75 H75        26.3371   -5.4605   -3.2258 H         1 UNK         0.3140 
     76 H76        26.6689   -4.3432   -0.6812 H         1 UNK         0.1085 
     77 H77        28.3380   -5.7354   -1.9945 H         1 UNK         0.0836 
     78 H78        28.6602   -4.3582   -3.0105 H         1 UNK         0.0836 
     79 H79        31.1996   -5.0367   -2.2919 H         1 UNK         0.0731 
     80 H80        31.9463   -3.9752   -1.1269 H         1 UNK         0.0731 
     81 H81        30.9849   -4.2035   -4.5244 H         1 UNK         0.1312 
     82 H82        31.3413   -0.0117   -5.3273 H         1 UNK         0.1406 
     83 H83        31.1876   -1.4083   -1.2808 H         1 UNK         0.1631 
     84 H84        32.2987    1.2674   -2.8176 H         1 UNK         0.0717 
     85 H85        31.0074    0.9274   -1.6893 H         1 UNK         0.0717 
     86 H86        28.6934    0.1977   -3.1050 H         1 UNK         0.0934 
     87 H87        27.8406    1.7033   -3.0892 H         1 UNK         0.0934 
     88 H88        28.9497    0.6610   -5.7412 H         1 UNK         0.0739 
     89 H89        27.1758   -0.9164   -4.3166 H         1 UNK         0.3093 
     90 H90        25.2925   -2.2518   -7.0675 H         1 UNK         0.0818 
     91 H91        27.3091   -3.6370   -6.8537 H         1 UNK         0.0819 
     92 H92        27.3510   -3.4207   -5.1164 H         1 UNK         0.0819 
     93 H93        26.0287   -4.3170   -5.8637 H         1 UNK         0.0819 
     94 H94        25.2135   -2.3737   -4.1507 H         1 UNK         0.3041 
     95 H95        22.7769    0.1549   -3.7803 H         1 UNK         0.0784 
     96 H96        21.2741   -1.6927   -4.4721 H         1 UNK         0.0793 
     97 H97        22.2512   -2.8582   -3.5942 H         1 UNK         0.0793 
     98 H98        21.3777   -1.6021   -2.7214 H         1 UNK         0.0793 
     99 H99        23.9439   -1.8554   -2.0368 H         1 UNK         0.3024 
    100 H100       26.8243    0.0832   -1.2087 H         1 UNK         0.1171 
    101 H101       25.9397   -0.1163    1.1001 H         1 UNK         0.0786 
    102 H102       25.0391    1.1045    0.2169 H         1 UNK         0.0786 
    103 H103       24.3273   -0.4813    0.4836 H         1 UNK         0.0786 
    104 H104       25.8349   -2.3677   -0.1496 H         1 UNK         0.2977 
    105 H105       25.6483    1.5362   -4.6636 H         1 UNK         0.3127 
    106 H106       25.5811    4.1537   -5.7359 H         1 UNK         0.0770 
    107 H107       23.2868    2.1699   -5.2838 H         1 UNK         0.0814 
    108 H108       23.1119    3.9051   -5.5034 H         1 UNK         0.0814 
    109 H109       23.9355    3.2840   -4.0811 H         1 UNK         0.0814 
    110 H110       25.0272    1.0160   -7.3226 H         1 UNK         0.2983 
    111 H111       23.9574    2.1642   -9.7737 H         1 UNK         0.0947 
    112 H112       23.2942   -0.1099   -9.0314 H         1 UNK         0.0806 
    113 H113       24.9584   -0.6684   -9.1671 H         1 UNK         0.0806 
    114 H114       24.0782   -0.1688  -10.6030 H         1 UNK         0.0806 
    115 H115       27.1065    0.6627   -8.8111 H         1 UNK         0.3000 
    116 H116       28.5917    2.3895  -10.6225 H         1 UNK         0.0850 
    117 H117       29.6353    0.4654  -11.8790 H         1 UNK         0.0810 
    118 H118       27.9319    0.6513  -12.2620 H         1 UNK         0.0810 
    119 H119       28.4552   -0.6300  -11.1712 H         1 UNK         0.0810 
    120 H120       29.9245    3.0830   -9.0436 H         1 UNK         0.3040 
    121 H121       30.7432    1.5450   -6.8105 H         1 UNK         0.0766 
    122 H122       31.8348    4.1929   -7.8899 H         1 UNK         0.0812 
    123 H123       30.4999    4.0019   -6.7493 H         1 UNK         0.0812 
    124 H124       32.1259    3.5446   -6.2805 H         1 UNK         0.0812 
    125 H125       32.0580    1.5587   -9.9602 H         1 UNK         0.3205 
    126 H126       34.8465    1.2954   -9.3715 H         1 UNK         0.0754 
    127 H127       35.0354    0.9591  -11.8205 H         1 UNK         0.0769 
    128 H128       33.9724    2.3064  -11.4658 H         1 UNK         0.0769 
    129 H129       33.2937    0.7523  -11.9533 H         1 UNK         0.0769 
    130 H130       33.8444   -0.5854   -7.7448 H         1 UNK         0.2981 
    131 H131       34.3720   -3.2621   -8.8645 H         1 UNK         0.0541 
    132 H132       36.2759   -4.5419   -8.3380 H         1 UNK         0.3459 
    133 H133       37.7660   -3.7423   -7.9100 H         1 UNK         0.3459 
    134 H134       33.7830   -2.2455   -6.0404 H         1 UNK         0.0612 
    135 H135       34.4005   -3.8527   -6.2987 H         1 UNK         0.0612 
    136 H136       30.0691   -2.6396   -6.8642 H         1 UNK         0.0624 
    137 H137       31.3431   -1.4798   -7.1486 H         1 UNK         0.0624 
@<TRIPOS>BOND
     1    1    2 1    
     2    1   72 1    
     3    1   73 1    
     4    1   74 1    
     5    2    3 2    
     6    2    4 am   BACKBONE|DICT|INTERRES
     7    4    5 1    
     8    4   75 1    
     9    5    6 1    
    10    5   35 1    
    11    5   76 1    
    12    6    7 1    
    13    6   77 1    
    14    6   78 1    
    15    7    8 1    
    16    8    9 1    
    17    8   79 1    
    18    8   80 1    
    19    9   10 ar   
    20    9   14 ar   
    21   10   11 ar   
    22   10   81 1    
    23   11   12 ar   
    24   11   71 1    
    25   12   13 ar   
    26   12   82 1    
    27   13   14 ar   
    28   13   15 1    
    29   14   83 1    
    30   15   16 1    
    31   15   84 1    
    32   15   85 1    
    33   16   17 1    
    34   17   18 1    
    35   17   86 1    
    36   17   87 1    
    37   18   19 1    
    38   18   37 1    
    39   18   88 1    
    40   19   20 am   BACKBONE|DICT|INTERRES
    41   19   89 1    
    42   20   21 2    
    43   20   22 1    
    44   22   23 1    
    45   22   24 1    
    46   22   90 1    
    47   23   91 1    
    48   23   92 1    
    49   23   93 1    
    50   24   25 am   BACKBONE|DICT|INTERRES
    51   24   94 1    
    52   25   26 2    
    53   25   27 1    
    54   27   28 1    
    55   27   29 1    
    56   27   95 1    
    57   28   96 1    
    58   28   97 1    
    59   28   98 1    
    60   29   30 am   BACKBONE|DICT|INTERRES
    61   29   99 1    
    62   30   31 2    
    63   30   32 1    
    64   32   33 1    
    65   32   34 1    
    66   32  100 1    
    67   33  101 1    
    68   33  102 1    
    69   33  103 1    
    70   34   35 am   BACKBONE|DICT|INTERRES
    71   34  104 1    
    72   35   36 2    
    73   37   38 2    
    74   37   39 am   BACKBONE|DICT|INTERRES
    75   39   40 1    
    76   39  105 1    
    77   40   41 1    
    78   40   42 1    
    79   40  106 1    
    80   41  107 1    
    81   41  108 1    
    82   41  109 1    
    83   42   43 2    
    84   42   44 am   BACKBONE|DICT|INTERRES
    85   44   45 1    
    86   44  110 1    
    87   45   46 1    
    88   45   47 1    
    89   45  111 1    
    90   46  112 1    
    91   46  113 1    
    92   46  114 1    
    93   47   48 2    
    94   47   49 am   BACKBONE|DICT|INTERRES
    95   49   50 1    
    96   49  115 1    
    97   50   51 1    
    98   50   52 1    
    99   50  116 1    
   100   51  117 1    
   101   51  118 1    
   102   51  119 1    
   103   52   53 2    
   104   52   54 am   BACKBONE|DICT|INTERRES
   105   54   55 1    
   106   54  120 1    
   107   55   56 1    
   108   55   57 1    
   109   55  121 1    
   110   56  122 1    
   111   56  123 1    
   112   56  124 1    
   113   57   58 2    
   114   57   59 am   BACKBONE|DICT|INTERRES
   115   59   60 1    
   116   59  125 1    
   117   60   61 1    
   118   60   62 1    
   119   60  126 1    
   120   61  127 1    
   121   61  128 1    
   122   61  129 1    
   123   62   63 2    
   124   62   64 am   BACKBONE|DICT|INTERRES
   125   64   65 1    
   126   64  130 1    
   127   65   66 1    
   128   65   69 1    
   129   65  131 1    
   130   66   67 am   BACKBONE|DICT|INTERRES
   131   66   68 2    
   132   67  132 1    
   133   67  133 1    
   134   69   70 1    
   135   69  134 1    
   136   69  135 1    
   137   70   71 1    
   138   71  136 1    
   139   71  137 1    
@<TRIPOS>SUBSTRUCTURE
     1 UNK         1 GROUP             0       ****    0 ROOT    
