@<TRIPOS>MOLECULE
3R137
137   139    1
SMALL
USER_CHARGES


@<TRIPOS>ATOM
      1 CA         31.5071    0.7390    0.6412 C.3       0 UNK        -0.2020 
      2 C          30.2224    0.0494    0.2058 C.2       0 UNK         0.4855 
      3 O          29.5090   -0.4817    1.0569 O.2       0 UNK        -0.5197 
      4 N          29.9474    0.0638   -1.1072 N.am      1 UNK        -0.4892 
      5 CA         28.8060   -0.5256   -1.8243 C.3       1 UNK         0.0835 
      6 C6         29.0844   -1.9484   -2.3897 C.3       12 UNK        -0.0855 
      7 S7         29.6107   -3.2083   -1.1720 S.3       12 UNK        -0.2931 
      8 C8         29.3187   -4.7720   -2.0733 C.3       12 UNK         0.0378 
      9 C9         29.8563   -4.7751   -3.5029 C.ar      12 UNK        -0.0802 
     10 C10        31.1220   -4.2550   -3.8023 C.ar      12 UNK        -0.0944 
     11 C11        31.5683   -4.1874   -5.1246 C.ar      12 UNK        -0.0787 
     12 C12        30.7689   -4.7034   -6.1463 C.ar      12 UNK        -0.0862 
     13 C13        29.5039   -5.2251   -5.8631 C.ar      12 UNK        -0.0733 
     14 C14        29.0581   -5.2718   -4.5392 C.ar      12 UNK        -0.0832 
     15 C15        28.5844   -5.6411   -7.0041 C.3       12 UNK         0.0240 
     16 S16        27.2346   -4.4377   -7.2815 S.3       12 UNK        -0.2522 
     17 C17        28.0562   -2.8414   -6.9397 C.3       12 UNK        -0.0967 
     18 CA         27.4012   -1.6157   -7.6104 C.3       5 UNK         0.0660 
     19 N          25.9536   -1.5722   -7.3855 N.am      5 UNK        -0.4015 
     20 C          25.1023   -0.5951   -7.7309 C.2       4 UNK         0.4946 
     21 O          25.4159    0.3793   -8.4184 O.2       4 UNK        -0.5353 
     22 CA         23.6827   -0.6757   -7.1364 C.3       4 UNK         0.0277 
     23 CB         22.7001   -1.2178   -8.1861 C.3       4 UNK        -0.1981 
     24 N          23.5722   -1.4745   -5.9028 N.am      4 UNK        -0.4209 
     25 C          24.2877   -1.2938   -4.7814 C.2       3 UNK         0.4942 
     26 O          25.1586   -0.4269   -4.6523 O.2       3 UNK        -0.5208 
     27 CA         24.0464   -2.2945   -3.6453 C.3       3 UNK         0.0250 
     28 CB         24.5843   -3.6905   -4.0235 C.3       3 UNK        -0.1990 
     29 N          24.7420   -1.8038   -2.4610 N.am      3 UNK        -0.4232 
     30 C          24.5397   -2.1789   -1.1935 C.2       2 UNK         0.4993 
     31 O          23.6737   -2.9874   -0.8543 O.2       2 UNK        -0.5286 
     32 CA         25.4872   -1.5709   -0.1406 C.3       2 UNK         0.0209 
     33 CB         25.5277   -2.3945    1.1605 C.3       2 UNK        -0.1931 
     34 N          26.8463   -1.4749   -0.6787 N.am      2 UNK        -0.4546 
     35 C          27.4389   -0.3605   -1.1219 C.2       1 UNK         0.5154 
     36 O          26.9302    0.7590   -1.0455 O.2       1 UNK        -0.5181 
     37 C          28.1403   -0.3487   -7.1290 C.2       5 UNK         0.5014 
     38 O          29.1848   -0.0204   -7.6939 O.2       5 UNK        -0.5248 
     39 N          27.5857    0.3557   -6.1277 N.am      6 UNK        -0.4434 
     40 CA         28.0673    1.6508   -5.6444 C.3       6 UNK         0.0363 
     41 CB         27.1400    2.1666   -4.5337 C.3       6 UNK        -0.1936 
     42 C          28.1975    2.7099   -6.7527 C.2       6 UNK         0.5081 
     43 O          29.1440    3.4963   -6.7239 O.2       6 UNK        -0.5248 
     44 N          27.2682    2.6776   -7.7169 N.am      7 UNK        -0.4718 
     45 CA         27.2933    3.4969   -8.9242 C.3       7 UNK         0.0273 
     46 CB         25.8860    4.0580   -9.1872 C.3       7 UNK        -0.1935 
     47 C          27.7823    2.6800  -10.1279 C.2       7 UNK         0.5018 
     48 O          28.6473    3.1563  -10.8619 O.2       7 UNK        -0.5186 
     49 N          27.2272    1.4721  -10.3152 N.am      8 UNK        -0.4240 
     50 CA         27.4285    0.6428  -11.5089 C.3       8 UNK         0.0235 
     51 CB         26.3973   -0.4975  -11.5254 C.3       8 UNK        -0.2000 
     52 C          28.8545    0.0918  -11.6803 C.2       8 UNK         0.4941 
     53 O          29.3054   -0.0407  -12.8187 O.2       8 UNK        -0.5273 
     54 N          29.5364   -0.2101  -10.5680 N.am      9 UNK        -0.4262 
     55 CA         30.9261   -0.6789  -10.5374 C.3       9 UNK         0.0264 
     56 CB         30.9745   -2.0391   -9.8183 C.3       9 UNK        -0.1955 
     57 C          31.8589    0.3400   -9.8556 C.2       9 UNK         0.5031 
     58 O          33.0537    0.0664   -9.7358 O.2       9 UNK        -0.5390 
     59 N          31.3051    1.4839   -9.4210 N.am      10 UNK        -0.4204 
     60 CA         31.9470    2.5665   -8.6669 C.3       10 UNK         0.0237 
     61 CB         33.0106    3.2816   -9.5280 C.3       10 UNK        -0.1985 
     62 C          32.4847    2.1255   -7.2882 C.2       10 UNK         0.4970 
     63 O          33.4690    2.6935   -6.8114 O.2       10 UNK        -0.4914 
     64 N          31.8313    1.1357   -6.6635 N.am      11 UNK        -0.4285 
     65 CA         32.2024    0.5828   -5.3480 C.3       11 UNK         0.1007 
     66 C          31.7521    1.4462   -4.1295 C.2       11 UNK         0.5703 
     67 N          31.2064    2.6425   -4.3116 N.am      11 UNK        -0.7361 
     68 O          31.8974    1.0242   -2.9850 O.2       11 UNK        -0.4986 
     69 C69        31.7684   -0.9025   -5.2143 C.3       12 UNK        -0.0947 
     70 S70        32.6198   -1.9760   -6.4211 S.3       12 UNK        -0.2240 
     71 C71        32.8862   -3.5067   -5.4640 C.3       12 UNK         0.0194 
     72 H72        32.1683    0.0241    1.1303 H         1 UNK         0.0906 
     73 H73        32.0442    1.1742   -0.2015 H         1 UNK         0.0906 
     74 H74        31.2840    1.5370    1.3489 H         1 UNK         0.0906 
     75 H75        30.6273    0.5123   -1.7185 H         1 UNK         0.3140 
     76 H76        28.7115    0.1104   -2.7055 H         1 UNK         0.1085 
     77 H77        28.2209   -2.3191   -2.9463 H         1 UNK         0.0836 
     78 H78        29.8808   -1.8680   -3.1288 H         1 UNK         0.0836 
     79 H79        28.2453   -4.9684   -2.0694 H         1 UNK         0.0731 
     80 H80        29.7835   -5.5892   -1.5205 H         1 UNK         0.0731 
     81 H81        31.7380   -3.8549   -3.0087 H         1 UNK         0.1312 
     82 H82        31.1080   -4.6350   -7.1712 H         1 UNK         0.1406 
     83 H83        28.0694   -5.6558   -4.3265 H         1 UNK         0.1631 
     84 H84        28.1534   -6.6204   -6.7919 H         1 UNK         0.0717 
     85 H85        29.1505   -5.7502   -7.9305 H         1 UNK         0.0717 
     86 H86        28.0902   -2.7184   -5.8545 H         1 UNK         0.0934 
     87 H87        29.0926   -2.9073   -7.2724 H         1 UNK         0.0934 
     88 H88        27.5553   -1.6940   -8.6867 H         1 UNK         0.0739 
     89 H89        25.5840   -2.3419   -6.8478 H         1 UNK         0.3093 
     90 H90        23.3885    0.3455   -6.8859 H         1 UNK         0.0818 
     91 H91        21.6712   -1.1744   -7.8283 H         1 UNK         0.0819 
     92 H92        22.7452   -0.6292   -9.1039 H         1 UNK         0.0819 
     93 H93        22.9218   -2.2522   -8.4518 H         1 UNK         0.0819 
     94 H94        22.8878   -2.2178   -5.9168 H         1 UNK         0.3041 
     95 H95        22.9747   -2.3432   -3.4418 H         1 UNK         0.0784 
     96 H96        24.0811   -4.0879   -4.9055 H         1 UNK         0.0793 
     97 H97        25.6535   -3.6655   -4.2401 H         1 UNK         0.0793 
     98 H98        24.4268   -4.4091   -3.2191 H         1 UNK         0.0793 
     99 H99        25.4163   -1.0760   -2.6649 H         1 UNK         0.3024 
    100 H100       25.1022   -0.5771    0.0992 H         1 UNK         0.1171 
    101 H101       24.5434   -2.4393    1.6286 H         1 UNK         0.0786 
    102 H102       25.8522   -3.4199    0.9790 H         1 UNK         0.0786 
    103 H103       26.2098   -1.9513    1.8866 H         1 UNK         0.0786 
    104 H104       27.3609   -2.3424   -0.7666 H         1 UNK         0.2977 
    105 H105       26.7231    0.0175   -5.7071 H         1 UNK         0.3127 
    106 H106       29.0537    1.4768   -5.2219 H         1 UNK         0.0770 
    107 H107       26.1353    2.3660   -4.9088 H         1 UNK         0.0814 
    108 H108       27.5212    3.0953   -4.1070 H         1 UNK         0.0814 
    109 H109       27.0481    1.4503   -3.7195 H         1 UNK         0.0814 
    110 H110       26.5523    1.9605   -7.6725 H         1 UNK         0.2983 
    111 H111       27.9741    4.3417   -8.7952 H         1 UNK         0.0947 
    112 H112       25.8703    4.6646  -10.0938 H         1 UNK         0.0806 
    113 H113       25.5569    4.6952   -8.3662 H         1 UNK         0.0806 
    114 H114       25.1468    3.2652   -9.3104 H         1 UNK         0.0806 
    115 H115       26.5278    1.1441   -9.6511 H         1 UNK         0.3000 
    116 H116       27.2303    1.2777  -12.3754 H         1 UNK         0.0850 
    117 H117       26.4915   -1.0955  -12.4329 H         1 UNK         0.0810 
    118 H118       25.3784   -0.1106  -11.4981 H         1 UNK         0.0810 
    119 H119       26.5193   -1.1715  -10.6787 H         1 UNK         0.0810 
    120 H120       29.1037   -0.0737   -9.6599 H         1 UNK         0.3040 
    121 H121       31.3068   -0.8197  -11.5508 H         1 UNK         0.0766 
    122 H122       30.6761   -1.9523   -8.7744 H         1 UNK         0.0812 
    123 H123       31.9835   -2.4532   -9.8307 H         1 UNK         0.0812 
    124 H124       30.3191   -2.7669  -10.2966 H         1 UNK         0.0812 
    125 H125       30.3190    1.6108   -9.5980 H         1 UNK         0.3205 
    126 H126       31.1596    3.2923   -8.4612 H         1 UNK         0.0754 
    127 H127       33.3795    4.1791   -9.0301 H         1 UNK         0.0769 
    128 H128       32.5987    3.5928  -10.4881 H         1 UNK         0.0769 
    129 H129       33.8715    2.6415   -9.7231 H         1 UNK         0.0769 
    130 H130       31.0191    0.7222   -7.1088 H         1 UNK         0.2981 
    131 H131       33.2923    0.5911   -5.2892 H         1 UNK         0.0541 
    132 H132       31.0593    3.0086   -5.2399 H         1 UNK         0.3459 
    133 H133       30.9405    3.1885   -3.5084 H         1 UNK         0.3459 
    134 H134       30.6908   -1.0064   -5.3498 H         1 UNK         0.0612 
    135 H135       31.9936   -1.2790   -4.2152 H         1 UNK         0.0612 
    136 H136       33.5008   -4.1888   -6.0527 H         1 UNK         0.0624 
    137 H137       33.4556   -3.2757   -4.5625 H         1 UNK         0.0624 
@<TRIPOS>BOND
     1    1    2 1    
     2    1   72 1    
     3    1   73 1    
     4    1   74 1    
     5    2    3 2    
     6    2    4 am   BACKBONE|DICT|INTERRES
     7    4    5 1    
     8    4   75 1    
     9    5    6 1    
    10    5   35 1    
    11    5   76 1    
    12    6    7 1    
    13    6   77 1    
    14    6   78 1    
    15    7    8 1    
    16    8    9 1    
    17    8   79 1    
    18    8   80 1    
    19    9   10 ar   
    20    9   14 ar   
    21   10   11 ar   
    22   10   81 1    
    23   11   12 ar   
    24   11   71 1    
    25   12   13 ar   
    26   12   82 1    
    27   13   14 ar   
    28   13   15 1    
    29   14   83 1    
    30   15   16 1    
    31   15   84 1    
    32   15   85 1    
    33   16   17 1    
    34   17   18 1    
    35   17   86 1    
    36   17   87 1    
    37   18   19 1    
    38   18   37 1    
    39   18   88 1    
    40   19   20 am   BACKBONE|DICT|INTERRES
    41   19   89 1    
    42   20   21 2    
    43   20   22 1    
    44   22   23 1    
    45   22   24 1    
    46   22   90 1    
    47   23   91 1    
    48   23   92 1    
    49   23   93 1    
    50   24   25 am   BACKBONE|DICT|INTERRES
    51   24   94 1    
    52   25   26 2    
    53   25   27 1    
    54   27   28 1    
    55   27   29 1    
    56   27   95 1    
    57   28   96 1    
    58   28   97 1    
    59   28   98 1    
    60   29   30 am   BACKBONE|DICT|INTERRES
    61   29   99 1    
    62   30   31 2    
    63   30   32 1    
    64   32   33 1    
    65   32   34 1    
    66   32  100 1    
    67   33  101 1    
    68   33  102 1    
    69   33  103 1    
    70   34   35 am   BACKBONE|DICT|INTERRES
    71   34  104 1    
    72   35   36 2    
    73   37   38 2    
    74   37   39 am   BACKBONE|DICT|INTERRES
    75   39   40 1    
    76   39  105 1    
    77   40   41 1    
    78   40   42 1    
    79   40  106 1    
    80   41  107 1    
    81   41  108 1    
    82   41  109 1    
    83   42   43 2    
    84   42   44 am   BACKBONE|DICT|INTERRES
    85   44   45 1    
    86   44  110 1    
    87   45   46 1    
    88   45   47 1    
    89   45  111 1    
    90   46  112 1    
    91   46  113 1    
    92   46  114 1    
    93   47   48 2    
    94   47   49 am   BACKBONE|DICT|INTERRES
    95   49   50 1    
    96   49  115 1    
    97   50   51 1    
    98   50   52 1    
    99   50  116 1    
   100   51  117 1    
   101   51  118 1    
   102   51  119 1    
   103   52   53 2    
   104   52   54 am   BACKBONE|DICT|INTERRES
   105   54   55 1    
   106   54  120 1    
   107   55   56 1    
   108   55   57 1    
   109   55  121 1    
   110   56  122 1    
   111   56  123 1    
   112   56  124 1    
   113   57   58 2    
   114   57   59 am   BACKBONE|DICT|INTERRES
   115   59   60 1    
   116   59  125 1    
   117   60   61 1    
   118   60   62 1    
   119   60  126 1    
   120   61  127 1    
   121   61  128 1    
   122   61  129 1    
   123   62   63 2    
   124   62   64 am   BACKBONE|DICT|INTERRES
   125   64   65 1    
   126   64  130 1    
   127   65   66 1    
   128   65   69 1    
   129   65  131 1    
   130   66   67 am   BACKBONE|DICT|INTERRES
   131   66   68 2    
   132   67  132 1    
   133   67  133 1    
   134   69   70 1    
   135   69  134 1    
   136   69  135 1    
   137   70   71 1    
   138   71  136 1    
   139   71  137 1    
@<TRIPOS>SUBSTRUCTURE
     1 UNK         1 GROUP             0       ****    0 ROOT    
