@<TRIPOS>MOLECULE
3R137
137   139    1
SMALL
USER_CHARGES


@<TRIPOS>ATOM
      1 CA         25.3164   -6.4090   -4.4280 C.3       0 UNK        -0.2020 
      2 C          25.5854   -5.5392   -3.2099 C.2       0 UNK         0.4855 
      3 O          24.6590   -4.9224   -2.6826 O.2       0 UNK        -0.5197 
      4 N          26.8480   -5.4716   -2.7650 N.am      1 UNK        -0.4892 
      5 CA         27.3041   -4.6475   -1.6398 C.3       1 UNK         0.0835 
      6 C6         28.7871   -4.9326   -1.3042 C.3       12 UNK        -0.0855 
      7 S7         29.2796   -4.2462    0.3150 S.3       12 UNK        -0.2931 
      8 C8         31.0562   -3.9233    0.0655 C.3       12 UNK         0.0378 
      9 C9         31.3113   -2.8542   -0.9885 C.ar      12 UNK        -0.0802 
     10 C10        31.8684   -3.2022   -2.2226 C.ar      12 UNK        -0.0944 
     11 C11        32.0941   -2.2286   -3.1990 C.ar      12 UNK        -0.0787 
     12 C12        31.7841   -0.8951   -2.9230 C.ar      12 UNK        -0.0862 
     13 C13        31.2178   -0.5307   -1.6966 C.ar      12 UNK        -0.0733 
     14 C14        30.9907   -1.5175   -0.7312 C.ar      12 UNK        -0.0832 
     15 C15        30.8464    0.9204   -1.3948 C.3       12 UNK         0.0240 
     16 S16        30.1185    1.8257   -2.8070 S.3       12 UNK        -0.2522 
     17 C17        28.6749    0.7933   -3.2293 C.3       12 UNK        -0.0967 
     18 CA         28.5754    0.5331   -4.7559 C.3       5 UNK         0.0660 
     19 N          27.9784   -0.7742   -5.0459 N.am      5 UNK        -0.4015 
     20 C          27.8872   -1.3411   -6.2579 C.2       4 UNK         0.4946 
     21 O          28.4136   -0.8805   -7.2708 O.2       4 UNK        -0.5353 
     22 CA         27.0294   -2.6125   -6.3718 C.3       4 UNK         0.0277 
     23 CB         27.8588   -3.8776   -6.1071 C.3       4 UNK        -0.1981 
     24 N          25.8880   -2.5715   -5.4564 N.am      4 UNK        -0.4209 
     25 C          24.7544   -1.8960   -5.6953 C.2       3 UNK         0.4942 
     26 O          24.5127   -1.3183   -6.7547 O.2       3 UNK        -0.5208 
     27 CA         23.7226   -1.8303   -4.5551 C.3       3 UNK         0.0250 
     28 CB         22.6805   -2.9503   -4.7009 C.3       3 UNK        -0.1990 
     29 N          24.3353   -1.8896   -3.2239 N.am      3 UNK        -0.4232 
     30 C          25.0617   -0.8928   -2.6942 C.2       2 UNK         0.4993 
     31 O          25.2689    0.1746   -3.2687 O.2       2 UNK        -0.5286 
     32 CA         25.7254   -1.1407   -1.3276 C.3       2 UNK         0.0209 
     33 CB         24.7739   -0.7464   -0.1875 C.3       2 UNK        -0.1931 
     34 N          26.1793   -2.5210   -1.1339 N.am      2 UNK        -0.4546 
     35 C          27.0480   -3.1550   -1.9333 C.2       1 UNK         0.5154 
     36 O          27.5800   -2.6273   -2.9122 O.2       1 UNK        -0.5181 
     37 C          27.8214    1.6764   -5.4712 C.2       5 UNK         0.5014 
     38 O          28.4482    2.5347   -6.0949 O.2       5 UNK        -0.5248 
     39 N          26.4813    1.6363   -5.4039 N.am      6 UNK        -0.4434 
     40 CA         25.5455    2.5951   -6.0042 C.3       6 UNK         0.0363 
     41 CB         24.1251    2.2864   -5.5013 C.3       6 UNK        -0.1936 
     42 C          25.5641    2.6737   -7.5445 C.2       6 UNK         0.5081 
     43 O          24.9060    3.5529   -8.1013 O.2       6 UNK        -0.5248 
     44 N          26.3200    1.7937   -8.2156 N.am      7 UNK        -0.4718 
     45 CA         26.5471    1.8046   -9.6639 C.3       7 UNK         0.0273 
     46 CB         27.1868    0.4663  -10.0702 C.3       7 UNK        -0.1935 
     47 C          27.4141    2.9812  -10.1601 C.2       7 UNK         0.5018 
     48 O          27.5767    3.1231  -11.3730 O.2       7 UNK        -0.5186 
     49 N          27.9919    3.7711   -9.2390 N.am      8 UNK        -0.4240 
     50 CA         28.9246    4.8943   -9.4317 C.3       8 UNK         0.0235 
     51 CB         28.3628    5.9835  -10.3669 C.3       8 UNK        -0.2000 
     52 C          30.3199    4.4219   -9.8654 C.2       8 UNK         0.4941 
     53 O          31.3065    4.7563   -9.2081 O.2       8 UNK        -0.5273 
     54 N          30.3734    3.5653  -10.8921 N.am      9 UNK        -0.4262 
     55 CA         31.4854    2.6567  -11.1632 C.3       9 UNK         0.0264 
     56 CB         31.4317    2.2222  -12.6392 C.3       9 UNK        -0.1955 
     57 C          31.3686    1.4695  -10.1902 C.2       9 UNK         0.5031 
     58 O          30.9105    0.3945  -10.5829 O.2       9 UNK        -0.5390 
     59 N          31.6949    1.7343   -8.9170 N.am      10 UNK        -0.4204 
     60 CA         31.4735    0.8711   -7.7561 C.3       10 UNK         0.0237 
     61 CB         32.0643    1.5483   -6.5093 C.3       10 UNK        -0.1985 
     62 C          32.0396   -0.5447   -7.9435 C.2       10 UNK         0.4970 
     63 O          33.2583   -0.7012   -8.0442 O.2       10 UNK        -0.4914 
     64 N          31.1346   -1.5272   -8.0101 N.am      11 UNK        -0.4285 
     65 CA         31.4107   -2.9472   -8.2841 C.3       11 UNK         0.1007 
     66 C          31.9811   -3.2425   -9.7065 C.2       11 UNK         0.5703 
     67 N          31.8878   -2.3315  -10.6684 N.am      11 UNK        -0.7361 
     68 O          32.4869   -4.3336   -9.9602 O.2       11 UNK        -0.4986 
     69 C69        32.2196   -3.6445   -7.1509 C.3       12 UNK        -0.0947 
     70 S70        31.3990   -3.5105   -5.5284 S.3       12 UNK        -0.2240 
     71 C71        32.6515   -2.6209   -4.5580 C.3       12 UNK         0.0194 
     72 H72        26.2150   -6.9214   -4.7710 H         1 UNK         0.0906 
     73 H73        24.5661   -7.1628   -4.1910 H         1 UNK         0.0906 
     74 H74        24.9390   -5.7990   -5.2483 H         1 UNK         0.0906 
     75 H75        27.5703   -5.9845   -3.2502 H         1 UNK         0.3140 
     76 H76        26.7028   -4.9400   -0.7760 H         1 UNK         0.1085 
     77 H77        29.4342   -4.5552   -2.0973 H         1 UNK         0.0836 
     78 H78        28.9606   -6.0091   -1.2624 H         1 UNK         0.0836 
     79 H79        31.5551   -4.8573   -0.1982 H         1 UNK         0.0731 
     80 H80        31.4926   -3.6024    1.0125 H         1 UNK         0.0731 
     81 H81        32.1080   -4.2351   -2.4360 H         1 UNK         0.1312 
     82 H82        31.9679   -0.1397   -3.6711 H         1 UNK         0.1406 
     83 H83        30.5544   -1.2513    0.2222 H         1 UNK         0.1631 
     84 H84        31.7434    1.4477   -1.0681 H         1 UNK         0.0717 
     85 H85        30.1406    0.9669   -0.5639 H         1 UNK         0.0717 
     86 H86        28.7620   -0.1546   -2.6972 H         1 UNK         0.0934 
     87 H87        27.7727    1.2618   -2.8309 H         1 UNK         0.0934 
     88 H88        29.5836    0.4940   -5.1715 H         1 UNK         0.0739 
     89 H89        27.6213   -1.2966   -4.2504 H         1 UNK         0.3093 
     90 H90        26.6552   -2.6666   -7.3967 H         1 UNK         0.0818 
     91 H91        27.2517   -4.7775   -6.2005 H         1 UNK         0.0819 
     92 H92        28.6701   -3.9643   -6.8288 H         1 UNK         0.0819 
     93 H93        28.3074   -3.8743   -5.1135 H         1 UNK         0.0819 
     94 H94        26.0307   -2.9682   -4.5374 H         1 UNK         0.3041 
     95 H95        23.2007   -0.8747   -4.6408 H         1 UNK         0.0784 
     96 H96        22.1641   -2.8772   -5.6591 H         1 UNK         0.0793 
     97 H97        23.1357   -3.9395   -4.6538 H         1 UNK         0.0793 
     98 H98        21.9222   -2.8921   -3.9199 H         1 UNK         0.0793 
     99 H99        24.2553   -2.7661   -2.7197 H         1 UNK         0.3024 
    100 H100       26.6060   -0.4973   -1.2746 H         1 UNK         0.1171 
    101 H101       25.2645   -0.8213    0.7832 H         1 UNK         0.0786 
    102 H102       24.4383    0.2858   -0.2995 H         1 UNK         0.0786 
    103 H103       23.8847   -1.3778   -0.1654 H         1 UNK         0.0786 
    104 H104       25.7640   -3.0297   -0.3664 H         1 UNK         0.2977 
    105 H105       26.0578    0.9312   -4.8036 H         1 UNK         0.3127 
    106 H106       25.8245    3.5859   -5.6403 H         1 UNK         0.0770 
    107 H107       23.7993    1.2929   -5.8102 H         1 UNK         0.0814 
    108 H108       23.4021    3.0032   -5.8931 H         1 UNK         0.0814 
    109 H109       24.0677    2.3372   -4.4140 H         1 UNK         0.0814 
    110 H110       26.8338    1.1026   -7.6852 H         1 UNK         0.2983 
    111 H111       25.5770    1.8882  -10.1584 H         1 UNK         0.0947 
    112 H112       28.1872    0.3553   -9.6495 H         1 UNK         0.0806 
    113 H113       27.2834    0.3898  -11.1540 H         1 UNK         0.0806 
    114 H114       26.5875   -0.3816   -9.7377 H         1 UNK         0.0806 
    115 H115       27.8400    3.5116   -8.2720 H         1 UNK         0.3000 
    116 H116       29.0404    5.3453   -8.4446 H         1 UNK         0.0850 
    117 H117       29.0186    6.8549  -10.3802 H         1 UNK         0.0810 
    118 H118       27.3811    6.3214  -10.0352 H         1 UNK         0.0810 
    119 H119       28.2684    5.6389  -11.3968 H         1 UNK         0.0810 
    120 H120       29.4852    3.3323  -11.3295 H         1 UNK         0.3040 
    121 H121       32.4366    3.1638  -10.9872 H         1 UNK         0.0766 
    122 H122       32.2347    1.5201  -12.8671 H         1 UNK         0.0812 
    123 H123       31.5466    3.0761  -13.3069 H         1 UNK         0.0812 
    124 H124       30.4888    1.7312  -12.8841 H         1 UNK         0.0812 
    125 H125       32.0179    2.6725   -8.7152 H         1 UNK         0.3205 
    126 H126       30.3932    0.8041   -7.6173 H         1 UNK         0.0754 
    127 H127       31.9401    0.9184   -5.6306 H         1 UNK         0.0769 
    128 H128       31.5661    2.4953   -6.2987 H         1 UNK         0.0769 
    129 H129       33.1316    1.7433   -6.6216 H         1 UNK         0.0769 
    130 H130       30.1511   -1.2875   -7.9072 H         1 UNK         0.2981 
    131 H131       30.4280   -3.4171   -8.3036 H         1 UNK         0.0541 
    132 H132       32.2490   -2.5478  -11.5830 H         1 UNK         0.3459 
    133 H133       31.4722   -1.4192  -10.4957 H         1 UNK         0.3459 
    134 H134       32.3304   -4.7096   -7.3600 H         1 UNK         0.0612 
    135 H135       33.2320   -3.2422   -7.0947 H         1 UNK         0.0612 
    136 H136       33.5303   -3.2542   -4.4297 H         1 UNK         0.0624 
    137 H137       32.9763   -1.7380   -5.1109 H         1 UNK         0.0624 
@<TRIPOS>BOND
     1    1    2 1    
     2    1   72 1    
     3    1   73 1    
     4    1   74 1    
     5    2    3 2    
     6    2    4 am   BACKBONE|DICT|INTERRES
     7    4    5 1    
     8    4   75 1    
     9    5    6 1    
    10    5   35 1    
    11    5   76 1    
    12    6    7 1    
    13    6   77 1    
    14    6   78 1    
    15    7    8 1    
    16    8    9 1    
    17    8   79 1    
    18    8   80 1    
    19    9   10 ar   
    20    9   14 ar   
    21   10   11 ar   
    22   10   81 1    
    23   11   12 ar   
    24   11   71 1    
    25   12   13 ar   
    26   12   82 1    
    27   13   14 ar   
    28   13   15 1    
    29   14   83 1    
    30   15   16 1    
    31   15   84 1    
    32   15   85 1    
    33   16   17 1    
    34   17   18 1    
    35   17   86 1    
    36   17   87 1    
    37   18   19 1    
    38   18   37 1    
    39   18   88 1    
    40   19   20 am   BACKBONE|DICT|INTERRES
    41   19   89 1    
    42   20   21 2    
    43   20   22 1    
    44   22   23 1    
    45   22   24 1    
    46   22   90 1    
    47   23   91 1    
    48   23   92 1    
    49   23   93 1    
    50   24   25 am   BACKBONE|DICT|INTERRES
    51   24   94 1    
    52   25   26 2    
    53   25   27 1    
    54   27   28 1    
    55   27   29 1    
    56   27   95 1    
    57   28   96 1    
    58   28   97 1    
    59   28   98 1    
    60   29   30 am   BACKBONE|DICT|INTERRES
    61   29   99 1    
    62   30   31 2    
    63   30   32 1    
    64   32   33 1    
    65   32   34 1    
    66   32  100 1    
    67   33  101 1    
    68   33  102 1    
    69   33  103 1    
    70   34   35 am   BACKBONE|DICT|INTERRES
    71   34  104 1    
    72   35   36 2    
    73   37   38 2    
    74   37   39 am   BACKBONE|DICT|INTERRES
    75   39   40 1    
    76   39  105 1    
    77   40   41 1    
    78   40   42 1    
    79   40  106 1    
    80   41  107 1    
    81   41  108 1    
    82   41  109 1    
    83   42   43 2    
    84   42   44 am   BACKBONE|DICT|INTERRES
    85   44   45 1    
    86   44  110 1    
    87   45   46 1    
    88   45   47 1    
    89   45  111 1    
    90   46  112 1    
    91   46  113 1    
    92   46  114 1    
    93   47   48 2    
    94   47   49 am   BACKBONE|DICT|INTERRES
    95   49   50 1    
    96   49  115 1    
    97   50   51 1    
    98   50   52 1    
    99   50  116 1    
   100   51  117 1    
   101   51  118 1    
   102   51  119 1    
   103   52   53 2    
   104   52   54 am   BACKBONE|DICT|INTERRES
   105   54   55 1    
   106   54  120 1    
   107   55   56 1    
   108   55   57 1    
   109   55  121 1    
   110   56  122 1    
   111   56  123 1    
   112   56  124 1    
   113   57   58 2    
   114   57   59 am   BACKBONE|DICT|INTERRES
   115   59   60 1    
   116   59  125 1    
   117   60   61 1    
   118   60   62 1    
   119   60  126 1    
   120   61  127 1    
   121   61  128 1    
   122   61  129 1    
   123   62   63 2    
   124   62   64 am   BACKBONE|DICT|INTERRES
   125   64   65 1    
   126   64  130 1    
   127   65   66 1    
   128   65   69 1    
   129   65  131 1    
   130   66   67 am   BACKBONE|DICT|INTERRES
   131   66   68 2    
   132   67  132 1    
   133   67  133 1    
   134   69   70 1    
   135   69  134 1    
   136   69  135 1    
   137   70   71 1    
   138   71  136 1    
   139   71  137 1    
@<TRIPOS>SUBSTRUCTURE
     1 UNK         1 GROUP             0       ****    0 ROOT    
