@<TRIPOS>MOLECULE
3R137
137   139    1
SMALL
USER_CHARGES


@<TRIPOS>ATOM
      1 CA         26.9964   -5.9106    0.7495 C.3       0 UNK        -0.2020 
      2 C          27.2420   -4.6941   -0.1298 C.2       0 UNK         0.4855 
      3 O          27.4974   -3.6048    0.3861 O.2       0 UNK        -0.5197 
      4 N          27.1680   -4.8654   -1.4557 N.am      1 UNK        -0.4892 
      5 CA         27.3544   -3.8063   -2.4512 C.3       1 UNK         0.0835 
      6 C6         27.7697   -4.3752   -3.8340 C.3       12 UNK        -0.0855 
      7 S7         29.3400   -5.3097   -3.8091 S.3       12 UNK        -0.2931 
      8 C8         30.3770   -4.3711   -4.9843 C.3       12 UNK         0.0378 
      9 C9         31.2430   -3.3282   -4.2880 C.ar      12 UNK        -0.0802 
     10 C10        32.6376   -3.4097   -4.3553 C.ar      12 UNK        -0.0944 
     11 C11        33.4370   -2.4557   -3.7175 C.ar      12 UNK        -0.0787 
     12 C12        32.8325   -1.4278   -2.9872 C.ar      12 UNK        -0.0862 
     13 C13        31.4399   -1.3426   -2.8994 C.ar      12 UNK        -0.0733 
     14 C14        30.6553   -2.2805   -3.5748 C.ar      12 UNK        -0.0832 
     15 C15        30.7922   -0.2731   -2.0295 C.3       12 UNK         0.0240 
     16 S16        30.0925    1.0953   -3.0026 S.3       12 UNK        -0.2522 
     17 C17        28.4005    0.5051   -3.3533 C.3       12 UNK        -0.0967 
     18 CA         28.0691    0.5612   -4.8665 C.3       5 UNK         0.0660 
     19 N          27.0247   -0.3912   -5.2527 N.am      5 UNK        -0.4015 
     20 C          26.7881   -0.7759   -6.5169 C.2       4 UNK         0.4946 
     21 O          27.5159   -0.4805   -7.4657 O.2       4 UNK        -0.5353 
     22 CA         25.5029   -1.5798   -6.7888 C.3       4 UNK         0.0277 
     23 CB         25.7843   -3.0850   -6.9123 C.3       4 UNK        -0.1981 
     24 N          24.4619   -1.3497   -5.7828 N.am      4 UNK        -0.4209 
     25 C          23.7293   -0.2276   -5.7221 C.2       3 UNK         0.4942 
     26 O          23.8349    0.6929   -6.5303 O.2       3 UNK        -0.5208 
     27 CA         22.7550   -0.0706   -4.5414 C.3       3 UNK         0.0250 
     28 CB         21.3777   -0.6480   -4.9027 C.3       3 UNK        -0.1990 
     29 N          23.2254   -0.6742   -3.2918 N.am      3 UNK        -0.4232 
     30 C          24.3721   -0.3736   -2.6659 C.2       2 UNK         0.4993 
     31 O          25.1768    0.4601   -3.0863 O.2       2 UNK        -0.5286 
     32 CA         24.7140   -1.1701   -1.3905 C.3       2 UNK         0.0209 
     33 CB         23.5296   -1.9854   -0.8231 C.3       2 UNK        -0.1931 
     34 N          25.8773   -2.0505   -1.5718 N.am      2 UNK        -0.4546 
     35 C          26.0750   -2.9466   -2.5506 C.2       1 UNK         0.5154 
     36 O          25.2901   -3.1228   -3.4852 O.2       1 UNK        -0.5181 
     37 C          27.6620    1.9836   -5.2954 C.2       5 UNK         0.5014 
     38 O          28.4593    2.6792   -5.9233 O.2       5 UNK        -0.5248 
     39 N          26.4125    2.3701   -4.9896 N.am      6 UNK        -0.4434 
     40 CA         25.8184    3.6602   -5.3598 C.3       6 UNK         0.0363 
     41 CB         24.4248    3.7884   -4.7252 C.3       6 UNK        -0.1936 
     42 C          25.7494    3.8855   -6.8818 C.2       6 UNK         0.5081 
     43 O          26.0235    4.9930   -7.3439 O.2       6 UNK        -0.5248 
     44 N          25.4270    2.8244   -7.6340 N.am      7 UNK        -0.4718 
     45 CA         25.4490    2.7952   -9.0998 C.3       7 UNK         0.0273 
     46 CB         24.6159    1.5970   -9.5845 C.3       7 UNK        -0.1935 
     47 C          26.8668    2.7317   -9.7025 C.2       7 UNK         0.5018 
     48 O          26.9991    2.9093  -10.9141 O.2       7 UNK        -0.5186 
     49 N          27.8846    2.4670   -8.8677 N.am      8 UNK        -0.4240 
     50 CA         29.3009    2.2880   -9.2047 C.3       8 UNK         0.0235 
     51 CB         29.9244    3.6173   -9.6807 C.3       8 UNK        -0.2000 
     52 C          29.5349    1.1213  -10.1824 C.2       8 UNK         0.4941 
     53 O          30.2787    1.2679  -11.1546 O.2       8 UNK        -0.5273 
     54 N          28.8939   -0.0244   -9.9071 N.am      9 UNK        -0.4262 
     55 CA         29.0245   -1.2543  -10.6954 C.3       9 UNK         0.0264 
     56 CB         27.8775   -2.2108  -10.3360 C.3       9 UNK        -0.1955 
     57 C          30.3842   -1.9500  -10.5007 C.2       9 UNK         0.5031 
     58 O          30.8143   -2.6922  -11.3851 O.2       9 UNK        -0.5390 
     59 N          31.0349   -1.6935   -9.3613 N.am      10 UNK        -0.4204 
     60 CA         32.3802   -2.1346   -9.0188 C.3       10 UNK         0.0237 
     61 CB         32.3203   -3.5054   -8.3221 C.3       10 UNK        -0.1985 
     62 C          33.0044   -1.0775   -8.1021 C.2       10 UNK         0.4970 
     63 O          32.2687   -0.3596   -7.4184 O.2       10 UNK        -0.4914 
     64 N          34.3417   -1.0272   -8.0982 N.am      11 UNK        -0.4285 
     65 CA         35.1763   -0.1384   -7.2708 C.3       11 UNK         0.1007 
     66 C          34.9393    1.3775   -7.5587 C.2       11 UNK         0.5703 
     67 N          35.2410    2.2699   -6.6238 N.am      11 UNK        -0.7361 
     68 O          34.5405    1.7631   -8.6567 O.2       11 UNK        -0.4986 
     69 C69        35.1346   -0.5210   -5.7604 C.3       12 UNK        -0.0947 
     70 S70        35.5870   -2.2674   -5.4772 S.3       12 UNK        -0.2240 
     71 C71        34.9548   -2.5497   -3.7939 C.3       12 UNK         0.0194 
     72 H72        26.1446   -5.7330    1.4054 H         1 UNK         0.0906 
     73 H73        26.7914   -6.8049    0.1612 H         1 UNK         0.0906 
     74 H74        27.8700   -6.1063    1.3706 H         1 UNK         0.0906 
     75 H75        26.9508   -5.7788   -1.8293 H         1 UNK         0.3140 
     76 H76        28.1570   -3.1550   -2.1017 H         1 UNK         0.1085 
     77 H77        27.8526   -3.5626   -4.5566 H         1 UNK         0.0836 
     78 H78        26.9967   -5.0427   -4.2203 H         1 UNK         0.0836 
     79 H79        29.7637   -3.8927   -5.7489 H         1 UNK         0.0731 
     80 H80        31.0071   -5.0868   -5.5148 H         1 UNK         0.0731 
     81 H81        33.1073   -4.2111   -4.9093 H         1 UNK         0.1312 
     82 H82        33.4474   -0.7010   -2.4741 H         1 UNK         0.1406 
     83 H83        29.5827   -2.2109   -3.5323 H         1 UNK         0.1631 
     84 H84        31.5310    0.1446   -1.3438 H         1 UNK         0.0717 
     85 H85        30.0236   -0.7188   -1.3962 H         1 UNK         0.0717 
     86 H86        28.2873   -0.5109   -2.9802 H         1 UNK         0.0934 
     87 H87        27.7012    1.0980   -2.7605 H         1 UNK         0.0934 
     88 H88        28.9695    0.2893   -5.4235 H         1 UNK         0.0739 
     89 H89        26.3290   -0.5981   -4.5476 H         1 UNK         0.3093 
     90 H90        25.1244   -1.2432   -7.7560 H         1 UNK         0.0818 
     91 H91        26.0224   -3.5372   -5.9532 H         1 UNK         0.0819 
     92 H92        24.9190   -3.6110   -7.3158 H         1 UNK         0.0819 
     93 H93        26.6209   -3.2823   -7.5815 H         1 UNK         0.0819 
     94 H94        24.3673   -2.0464   -5.0503 H         1 UNK         0.3041 
     95 H95        22.6372    0.9990   -4.3580 H         1 UNK         0.0784 
     96 H96        20.9942   -0.1970   -5.8193 H         1 UNK         0.0793 
     97 H97        21.4204   -1.7261   -5.0629 H         1 UNK         0.0793 
     98 H98        20.6463   -0.4526   -4.1182 H         1 UNK         0.0793 
     99 H99        22.6446   -1.3968   -2.8918 H         1 UNK         0.3024 
    100 H100       24.9941   -0.4264   -0.6425 H         1 UNK         0.1171 
    101 H101       23.7954   -2.4394    0.1318 H         1 UNK         0.0786 
    102 H102       22.6609   -1.3513   -0.6395 H         1 UNK         0.0786 
    103 H103       23.2239   -2.7921   -1.4907 H         1 UNK         0.0786 
    104 H104       26.5582   -2.0358   -0.8205 H         1 UNK         0.2977 
    105 H105       25.8373    1.7426   -4.4339 H         1 UNK         0.3127 
    106 H106       26.4557    4.4418   -4.9409 H         1 UNK         0.0770 
    107 H107       23.7308    3.0475   -5.1216 H         1 UNK         0.0814 
    108 H108       23.9971    4.7718   -4.9242 H         1 UNK         0.0814 
    109 H109       24.4663    3.6653   -3.6427 H         1 UNK         0.0814 
    110 H110       25.1101    1.9773   -7.1684 H         1 UNK         0.2983 
    111 H111       24.9809    3.7105   -9.4686 H         1 UNK         0.0947 
    112 H112       24.5558    1.5752  -10.6735 H         1 UNK         0.0806 
    113 H113       23.5949    1.6423   -9.2051 H         1 UNK         0.0806 
    114 H114       25.0520    0.6507   -9.2635 H         1 UNK         0.0806 
    115 H115       27.6688    2.3624   -7.8834 H         1 UNK         0.3000 
    116 H116       29.8009    2.0063   -8.2764 H         1 UNK         0.0850 
    117 H117       31.0018    3.5152   -9.8171 H         1 UNK         0.0810 
    118 H118       29.7646    4.4116   -8.9515 H         1 UNK         0.0810 
    119 H119       29.5053    3.9449  -10.6325 H         1 UNK         0.0810 
    120 H120       28.3194   -0.0810   -9.0657 H         1 UNK         0.3040 
    121 H121       28.9331   -0.9926  -11.7517 H         1 UNK         0.0766 
    122 H122       26.9046   -1.7357  -10.4628 H         1 UNK         0.0812 
    123 H123       27.9558   -2.5501   -9.3038 H         1 UNK         0.0812 
    124 H124       27.8946   -3.0965  -10.9723 H         1 UNK         0.0812 
    125 H125       30.6357   -1.0364   -8.7020 H         1 UNK         0.3205 
    126 H126       32.9814   -2.2076   -9.9279 H         1 UNK         0.0754 
    127 H127       33.3172   -3.8502   -8.0445 H         1 UNK         0.0769 
    128 H128       31.8823   -4.2633   -8.9719 H         1 UNK         0.0769 
    129 H129       31.7253   -3.4603   -7.4103 H         1 UNK         0.0769 
    130 H130       34.8516   -1.6472   -8.7097 H         1 UNK         0.2981 
    131 H131       36.1961   -0.3143   -7.6145 H         1 UNK         0.0541 
    132 H132       35.5912    1.9842   -5.7235 H         1 UNK         0.3459 
    133 H133       35.1088    3.2490   -6.8233 H         1 UNK         0.3459 
    134 H134       34.1412   -0.3282   -5.3534 H         1 UNK         0.0612 
    135 H135       35.8323    0.0859   -5.1823 H         1 UNK         0.0612 
    136 H136       35.4268   -1.8383   -3.1144 H         1 UNK         0.0624 
    137 H137       35.2665   -3.5418   -3.4644 H         1 UNK         0.0624 
@<TRIPOS>BOND
     1    1    2 1    
     2    1   72 1    
     3    1   73 1    
     4    1   74 1    
     5    2    3 2    
     6    2    4 am   BACKBONE|DICT|INTERRES
     7    4    5 1    
     8    4   75 1    
     9    5    6 1    
    10    5   35 1    
    11    5   76 1    
    12    6    7 1    
    13    6   77 1    
    14    6   78 1    
    15    7    8 1    
    16    8    9 1    
    17    8   79 1    
    18    8   80 1    
    19    9   10 ar   
    20    9   14 ar   
    21   10   11 ar   
    22   10   81 1    
    23   11   12 ar   
    24   11   71 1    
    25   12   13 ar   
    26   12   82 1    
    27   13   14 ar   
    28   13   15 1    
    29   14   83 1    
    30   15   16 1    
    31   15   84 1    
    32   15   85 1    
    33   16   17 1    
    34   17   18 1    
    35   17   86 1    
    36   17   87 1    
    37   18   19 1    
    38   18   37 1    
    39   18   88 1    
    40   19   20 am   BACKBONE|DICT|INTERRES
    41   19   89 1    
    42   20   21 2    
    43   20   22 1    
    44   22   23 1    
    45   22   24 1    
    46   22   90 1    
    47   23   91 1    
    48   23   92 1    
    49   23   93 1    
    50   24   25 am   BACKBONE|DICT|INTERRES
    51   24   94 1    
    52   25   26 2    
    53   25   27 1    
    54   27   28 1    
    55   27   29 1    
    56   27   95 1    
    57   28   96 1    
    58   28   97 1    
    59   28   98 1    
    60   29   30 am   BACKBONE|DICT|INTERRES
    61   29   99 1    
    62   30   31 2    
    63   30   32 1    
    64   32   33 1    
    65   32   34 1    
    66   32  100 1    
    67   33  101 1    
    68   33  102 1    
    69   33  103 1    
    70   34   35 am   BACKBONE|DICT|INTERRES
    71   34  104 1    
    72   35   36 2    
    73   37   38 2    
    74   37   39 am   BACKBONE|DICT|INTERRES
    75   39   40 1    
    76   39  105 1    
    77   40   41 1    
    78   40   42 1    
    79   40  106 1    
    80   41  107 1    
    81   41  108 1    
    82   41  109 1    
    83   42   43 2    
    84   42   44 am   BACKBONE|DICT|INTERRES
    85   44   45 1    
    86   44  110 1    
    87   45   46 1    
    88   45   47 1    
    89   45  111 1    
    90   46  112 1    
    91   46  113 1    
    92   46  114 1    
    93   47   48 2    
    94   47   49 am   BACKBONE|DICT|INTERRES
    95   49   50 1    
    96   49  115 1    
    97   50   51 1    
    98   50   52 1    
    99   50  116 1    
   100   51  117 1    
   101   51  118 1    
   102   51  119 1    
   103   52   53 2    
   104   52   54 am   BACKBONE|DICT|INTERRES
   105   54   55 1    
   106   54  120 1    
   107   55   56 1    
   108   55   57 1    
   109   55  121 1    
   110   56  122 1    
   111   56  123 1    
   112   56  124 1    
   113   57   58 2    
   114   57   59 am   BACKBONE|DICT|INTERRES
   115   59   60 1    
   116   59  125 1    
   117   60   61 1    
   118   60   62 1    
   119   60  126 1    
   120   61  127 1    
   121   61  128 1    
   122   61  129 1    
   123   62   63 2    
   124   62   64 am   BACKBONE|DICT|INTERRES
   125   64   65 1    
   126   64  130 1    
   127   65   66 1    
   128   65   69 1    
   129   65  131 1    
   130   66   67 am   BACKBONE|DICT|INTERRES
   131   66   68 2    
   132   67  132 1    
   133   67  133 1    
   134   69   70 1    
   135   69  134 1    
   136   69  135 1    
   137   70   71 1    
   138   71  136 1    
   139   71  137 1    
@<TRIPOS>SUBSTRUCTURE
     1 UNK         1 GROUP             0       ****    0 ROOT    
