@<TRIPOS>MOLECULE
3R137
137   139    1
SMALL
USER_CHARGES


@<TRIPOS>ATOM
      1 CA         26.5351   -1.1188    4.4945 C.3       0 UNK        -0.2020 
      2 C          26.7885   -0.9882    2.9998 C.2       0 UNK         0.4855 
      3 O          26.2617   -0.0718    2.3676 O.2       0 UNK        -0.5197 
      4 N          27.5971   -1.8917    2.4314 N.am      1 UNK        -0.4892 
      5 CA         27.8924   -1.9589    0.9964 C.3       1 UNK         0.0835 
      6 C6         29.2013   -2.7470    0.7377 C.3       12 UNK        -0.0855 
      7 S7         29.9312   -2.3843   -0.8972 S.3       12 UNK        -0.2931 
      8 C8         29.9118   -4.0457   -1.6480 C.3       12 UNK         0.0378 
      9 C9         30.2723   -4.0454   -3.1306 C.ar      12 UNK        -0.0802 
     10 C10        31.3812   -3.3372   -3.6081 C.ar      12 UNK        -0.0944 
     11 C11        31.7169   -3.3676   -4.9652 C.ar      12 UNK        -0.0787 
     12 C12        30.9430   -4.1261   -5.8494 C.ar      12 UNK        -0.0862 
     13 C13        29.8367   -4.8453   -5.3851 C.ar      12 UNK        -0.0733 
     14 C14        29.5089   -4.8000   -4.0268 C.ar      12 UNK        -0.0832 
     15 C15        29.0122   -5.7015   -6.3385 C.3       12 UNK         0.0240 
     16 S16        28.1566   -4.7266   -7.6159 S.3       12 UNK        -0.2522 
     17 C17        26.9850   -3.7274   -6.6344 C.3       12 UNK        -0.0967 
     18 CA         26.6410   -2.3990   -7.3511 C.3       5 UNK         0.0660 
     19 N          25.3818   -1.8182   -6.8815 N.am      5 UNK        -0.4015 
     20 C          24.7042   -0.8612   -7.5322 C.2       4 UNK         0.4946 
     21 O          25.0510   -0.3881   -8.6145 O.2       4 UNK        -0.5353 
     22 CA         23.4464   -0.3109   -6.8401 C.3       4 UNK         0.0277 
     23 CB         22.2556   -1.2638   -7.0327 C.3       4 UNK        -0.1981 
     24 N          23.6530   -0.0558   -5.4126 N.am      4 UNK        -0.4209 
     25 C          24.4954    0.8684   -4.9298 C.2       3 UNK         0.4942 
     26 O          25.1601    1.6263   -5.6359 O.2       3 UNK        -0.5208 
     27 CA         24.6527    0.9376   -3.4011 C.3       3 UNK         0.0250 
     28 CB         23.5457    1.8103   -2.7879 C.3       3 UNK        -0.1990 
     29 N          24.6932   -0.3597   -2.7112 N.am      3 UNK        -0.4232 
     30 C          25.4955   -1.3892   -3.0179 C.2       2 UNK         0.4993 
     31 O          26.2299   -1.4243   -4.0057 O.2       2 UNK        -0.5286 
     32 CA         25.5534   -2.5344   -2.0068 C.3       2 UNK         0.0209 
     33 CB         25.8495   -3.8927   -2.6713 C.3       2 UNK        -0.1931 
     34 N          26.6234   -2.1888   -1.0804 N.am      2 UNK        -0.4546 
     35 C          26.6912   -2.5313    0.2084 C.2       1 UNK         0.5154 
     36 O          25.8693   -3.2651    0.7652 O.2       1 UNK        -0.5181 
     37 C          27.7879   -1.3761   -7.2607 C.2       5 UNK         0.5014 
     38 O          28.5514   -1.2462   -8.2168 O.2       5 UNK        -0.5248 
     39 N          27.8510   -0.6328   -6.1459 N.am      6 UNK        -0.4434 
     40 CA         28.8222    0.4357   -5.9066 C.3       6 UNK         0.0363 
     41 CB         28.6442    0.9990   -4.4896 C.3       6 UNK        -0.1936 
     42 C          28.7701    1.5536   -6.9599 C.2       6 UNK         0.5081 
     43 O          29.8234    2.0375   -7.3775 O.2       6 UNK        -0.5248 
     44 N          27.5540    1.9142   -7.3920 N.am      7 UNK        -0.4718 
     45 CA         27.3090    2.8334   -8.5007 C.3       7 UNK         0.0273 
     46 CB         25.8403    3.2868   -8.4821 C.3       7 UNK        -0.1935 
     47 C          27.6772    2.2193   -9.8612 C.2       7 UNK         0.5018 
     48 O          28.3889    2.8633  -10.6316 O.2       7 UNK        -0.5186 
     49 N          27.1971    0.9956  -10.1341 N.am      8 UNK        -0.4240 
     50 CA         27.3936    0.2886  -11.4056 C.3       8 UNK         0.0235 
     51 CB         26.5284   -0.9812  -11.4389 C.3       8 UNK        -0.2000 
     52 C          28.8615   -0.0533  -11.7089 C.2       8 UNK         0.4941 
     53 O          29.3089    0.1596  -12.8365 O.2       8 UNK        -0.5273 
     54 N          29.5864   -0.5625  -10.7043 N.am      9 UNK        -0.4262 
     55 CA         31.0132   -0.8853  -10.7954 C.3       9 UNK         0.0264 
     56 CB         31.3541   -1.9523   -9.7412 C.3       9 UNK        -0.1955 
     57 C          31.9206    0.3472  -10.6295 C.2       9 UNK         0.5031 
     58 O          33.1154    0.2466  -10.9111 O.2       9 UNK        -0.5390 
     59 N          31.3529    1.4683  -10.1572 N.am      10 UNK        -0.4204 
     60 CA         31.9998    2.7505   -9.8485 C.3       10 UNK         0.0237 
     61 CB         32.5825    3.4000  -11.1218 C.3       10 UNK        -0.1985 
     62 C          33.0226    2.6780   -8.6949 C.2       10 UNK         0.4970 
     63 O          33.8480    3.5831   -8.5591 O.2       10 UNK        -0.4914 
     64 N          32.9433    1.6229   -7.8753 N.am      11 UNK        -0.4285 
     65 CA         33.7441    1.4299   -6.6595 C.3       11 UNK         0.1007 
     66 C          33.2316    2.2409   -5.4330 C.2       11 UNK         0.5703 
     67 N          32.0191    2.7851   -5.4533 N.am      11 UNK        -0.7361 
     68 O          33.9584    2.3949   -4.4542 O.2       11 UNK        -0.4986 
     69 C69        33.9356   -0.0780   -6.3394 C.3       12 UNK        -0.0947 
     70 S70        32.3598   -0.9609   -6.1035 S.3       12 UNK        -0.2240 
     71 C71        32.9085   -2.5702   -5.4736 C.3       12 UNK         0.0194 
     72 H72        27.0746   -1.9604    4.9285 H         1 UNK         0.0906 
     73 H73        26.8514   -0.2120    5.0095 H         1 UNK         0.0906 
     74 H74        25.4718   -1.2645    4.6829 H         1 UNK         0.0906 
     75 H75        27.9701   -2.6444    2.9928 H         1 UNK         0.3140 
     76 H76        28.0464   -0.9313    0.6572 H         1 UNK         0.1085 
     77 H77        29.9527   -2.4671    1.4782 H         1 UNK         0.0836 
     78 H78        29.0465   -3.8201    0.8676 H         1 UNK         0.0836 
     79 H79        30.6140   -4.6877   -1.1144 H         1 UNK         0.0731 
     80 H80        28.9201   -4.4780   -1.5032 H         1 UNK         0.0731 
     81 H81        31.9814   -2.7550   -2.9223 H         1 UNK         0.1312 
     82 H82        31.1964   -4.1512   -6.9007 H         1 UNK         0.1406 
     83 H83        28.6629   -5.3677   -3.6640 H         1 UNK         0.1631 
     84 H84        28.2742   -6.2941   -5.7956 H         1 UNK         0.0717 
     85 H85        29.6736   -6.4160   -6.8304 H         1 UNK         0.0717 
     86 H86        26.0843   -4.3281   -6.4987 H         1 UNK         0.0934 
     87 H87        27.3781   -3.5415   -5.6333 H         1 UNK         0.0934 
     88 H88        26.4951   -2.6239   -8.4099 H         1 UNK         0.0739 
     89 H89        25.0831   -2.0797   -5.9527 H         1 UNK         0.3093 
     90 H90        23.2002    0.6407   -7.3167 H         1 UNK         0.0818 
     91 H91        21.3380   -0.8385   -6.6257 H         1 UNK         0.0819 
     92 H92        22.0787   -1.4554   -8.0921 H         1 UNK         0.0819 
     93 H93        22.4219   -2.2279   -6.5507 H         1 UNK         0.0819 
     94 H94        23.1443   -0.6325   -4.7584 H         1 UNK         0.3041 
     95 H95        25.6079    1.4261   -3.2021 H         1 UNK         0.0784 
     96 H96        23.5055    2.7877   -3.2715 H         1 UNK         0.0793 
     97 H97        22.5618    1.3523   -2.8966 H         1 UNK         0.0793 
     98 H98        23.7196    1.9857   -1.7260 H         1 UNK         0.0793 
     99 H99        24.1442   -0.4228   -1.8656 H         1 UNK         0.3024 
    100 H100       24.5985   -2.5958   -1.4795 H         1 UNK         0.1171 
    101 H101       26.8099   -3.8865   -3.1862 H         1 UNK         0.0786 
    102 H102       25.0843   -4.1433   -3.4067 H         1 UNK         0.0786 
    103 H103       25.8711   -4.6970   -1.9359 H         1 UNK         0.0786 
    104 H104       27.3543   -1.6065   -1.4694 H         1 UNK         0.2977 
    105 H105       27.1994   -0.8382   -5.3886 H         1 UNK         0.3127 
    106 H106       29.8072   -0.0191   -5.9654 H         1 UNK         0.0770 
    107 H107       28.7257    0.2138   -3.7376 H         1 UNK         0.0814 
    108 H108       27.6758    1.4834   -4.3696 H         1 UNK         0.0814 
    109 H109       29.4113    1.7418   -4.2683 H         1 UNK         0.0814 
    110 H110       26.7380    1.5154   -6.9380 H         1 UNK         0.2983 
    111 H111       27.9371    3.7151   -8.3540 H         1 UNK         0.0947 
    112 H112       25.6333    3.9781   -9.3001 H         1 UNK         0.0806 
    113 H113       25.5986    3.8020   -7.5522 H         1 UNK         0.0806 
    114 H114       25.1541    2.4448   -8.5818 H         1 UNK         0.0806 
    115 H115       26.5987    0.5385   -9.4509 H         1 UNK         0.3000 
    116 H116       27.0449    0.9515  -12.2003 H         1 UNK         0.0850 
    117 H117       26.6490   -1.5133  -12.3835 H         1 UNK         0.0810 
    118 H118       25.4698   -0.7424  -11.3352 H         1 UNK         0.0810 
    119 H119       26.7958   -1.6711  -10.6381 H         1 UNK         0.0810 
    120 H120       29.1364   -0.7424   -9.8042 H         1 UNK         0.3040 
    121 H121       31.2166   -1.3086  -11.7813 H         1 UNK         0.0766 
    122 H122       32.4047   -2.2401   -9.7957 H         1 UNK         0.0812 
    123 H123       30.7608   -2.8556   -9.8841 H         1 UNK         0.0812 
    124 H124       31.1671   -1.5912   -8.7301 H         1 UNK         0.0812 
    125 H125       30.3623    1.4347   -9.9538 H         1 UNK         0.3205 
    126 H126       31.1998    3.3998   -9.4895 H         1 UNK         0.0754 
    127 H127       32.9160    4.4195  -10.9248 H         1 UNK         0.0769 
    128 H128       31.8363    3.4532  -11.9147 H         1 UNK         0.0769 
    129 H129       33.4407    2.8464  -11.5037 H         1 UNK         0.0769 
    130 H130       32.2035    0.9526   -8.0232 H         1 UNK         0.2981 
    131 H131       34.7406    1.8249   -6.8655 H         1 UNK         0.0541 
    132 H132       31.3957    2.6277   -6.2373 H         1 UNK         0.3459 
    133 H133       31.7081    3.3206   -4.6596 H         1 UNK         0.3459 
    134 H134       34.5553   -0.2060   -5.4500 H         1 UNK         0.0612 
    135 H135       34.4751   -0.5617   -7.1550 H         1 UNK         0.0612 
    136 H136       33.4213   -3.1158   -6.2670 H         1 UNK         0.0624 
    137 H137       33.6345   -2.4220   -4.6727 H         1 UNK         0.0624 
@<TRIPOS>BOND
     1    1    2 1    
     2    1   72 1    
     3    1   73 1    
     4    1   74 1    
     5    2    3 2    
     6    2    4 am   BACKBONE|DICT|INTERRES
     7    4    5 1    
     8    4   75 1    
     9    5    6 1    
    10    5   35 1    
    11    5   76 1    
    12    6    7 1    
    13    6   77 1    
    14    6   78 1    
    15    7    8 1    
    16    8    9 1    
    17    8   79 1    
    18    8   80 1    
    19    9   10 ar   
    20    9   14 ar   
    21   10   11 ar   
    22   10   81 1    
    23   11   12 ar   
    24   11   71 1    
    25   12   13 ar   
    26   12   82 1    
    27   13   14 ar   
    28   13   15 1    
    29   14   83 1    
    30   15   16 1    
    31   15   84 1    
    32   15   85 1    
    33   16   17 1    
    34   17   18 1    
    35   17   86 1    
    36   17   87 1    
    37   18   19 1    
    38   18   37 1    
    39   18   88 1    
    40   19   20 am   BACKBONE|DICT|INTERRES
    41   19   89 1    
    42   20   21 2    
    43   20   22 1    
    44   22   23 1    
    45   22   24 1    
    46   22   90 1    
    47   23   91 1    
    48   23   92 1    
    49   23   93 1    
    50   24   25 am   BACKBONE|DICT|INTERRES
    51   24   94 1    
    52   25   26 2    
    53   25   27 1    
    54   27   28 1    
    55   27   29 1    
    56   27   95 1    
    57   28   96 1    
    58   28   97 1    
    59   28   98 1    
    60   29   30 am   BACKBONE|DICT|INTERRES
    61   29   99 1    
    62   30   31 2    
    63   30   32 1    
    64   32   33 1    
    65   32   34 1    
    66   32  100 1    
    67   33  101 1    
    68   33  102 1    
    69   33  103 1    
    70   34   35 am   BACKBONE|DICT|INTERRES
    71   34  104 1    
    72   35   36 2    
    73   37   38 2    
    74   37   39 am   BACKBONE|DICT|INTERRES
    75   39   40 1    
    76   39  105 1    
    77   40   41 1    
    78   40   42 1    
    79   40  106 1    
    80   41  107 1    
    81   41  108 1    
    82   41  109 1    
    83   42   43 2    
    84   42   44 am   BACKBONE|DICT|INTERRES
    85   44   45 1    
    86   44  110 1    
    87   45   46 1    
    88   45   47 1    
    89   45  111 1    
    90   46  112 1    
    91   46  113 1    
    92   46  114 1    
    93   47   48 2    
    94   47   49 am   BACKBONE|DICT|INTERRES
    95   49   50 1    
    96   49  115 1    
    97   50   51 1    
    98   50   52 1    
    99   50  116 1    
   100   51  117 1    
   101   51  118 1    
   102   51  119 1    
   103   52   53 2    
   104   52   54 am   BACKBONE|DICT|INTERRES
   105   54   55 1    
   106   54  120 1    
   107   55   56 1    
   108   55   57 1    
   109   55  121 1    
   110   56  122 1    
   111   56  123 1    
   112   56  124 1    
   113   57   58 2    
   114   57   59 am   BACKBONE|DICT|INTERRES
   115   59   60 1    
   116   59  125 1    
   117   60   61 1    
   118   60   62 1    
   119   60  126 1    
   120   61  127 1    
   121   61  128 1    
   122   61  129 1    
   123   62   63 2    
   124   62   64 am   BACKBONE|DICT|INTERRES
   125   64   65 1    
   126   64  130 1    
   127   65   66 1    
   128   65   69 1    
   129   65  131 1    
   130   66   67 am   BACKBONE|DICT|INTERRES
   131   66   68 2    
   132   67  132 1    
   133   67  133 1    
   134   69   70 1    
   135   69  134 1    
   136   69  135 1    
   137   70   71 1    
   138   71  136 1    
   139   71  137 1    
@<TRIPOS>SUBSTRUCTURE
     1 UNK         1 GROUP             0       ****    0 ROOT    
