@<TRIPOS>MOLECULE
3R137
137   139    1
SMALL
USER_CHARGES


@<TRIPOS>ATOM
      1 CA         25.1805   -3.8178   -8.1681 C.3       0 UNK        -0.2020 
      2 C          25.4519   -3.8552   -6.6725 C.2       0 UNK         0.4855 
      3 O          25.0217   -2.9523   -5.9559 O.2       0 UNK        -0.5197 
      4 N          26.1575   -4.8924   -6.1993 N.am      1 UNK        -0.4892 
      5 CA         26.5833   -5.0988   -4.8067 C.3       1 UNK         0.0835 
      6 C6         27.7263   -4.1342   -4.3835 C.3       12 UNK        -0.0855 
      7 S7         29.2432   -4.4129   -5.3551 S.3       12 UNK        -0.2931 
      8 C8         30.5279   -4.1873   -4.0874 C.3       12 UNK         0.0378 
      9 C9         30.6687   -2.7283   -3.6772 C.ar      12 UNK        -0.0802 
     10 C10        31.4629   -1.8637   -4.4344 C.ar      12 UNK        -0.0944 
     11 C11        31.6439   -0.5349   -4.0418 C.ar      12 UNK        -0.0787 
     12 C12        31.0156   -0.0684   -2.8810 C.ar      12 UNK        -0.0862 
     13 C13        30.2103   -0.9223   -2.1184 C.ar      12 UNK        -0.0733 
     14 C14        30.0402   -2.2498   -2.5236 C.ar      12 UNK        -0.0832 
     15 C15        29.5642   -0.4381   -0.8263 C.3       12 UNK         0.0240 
     16 S16        27.8198    0.0351   -1.0570 S.3       12 UNK        -0.2522 
     17 C17        27.9778    1.6847   -1.8159 C.3       12 UNK        -0.0967 
     18 CA         27.7471    1.6621   -3.3473 C.3       5 UNK         0.0660 
     19 N          26.3428    1.5280   -3.7218 N.am      5 UNK        -0.4015 
     20 C          25.7219    0.4101   -4.1006 C.2       4 UNK         0.4946 
     21 O          26.1941   -0.7236   -3.9891 O.2       4 UNK        -0.5353 
     22 CA         24.3532    0.6135   -4.7639 C.3       4 UNK         0.0277 
     23 CB         24.5137    1.1397   -6.2027 C.3       4 UNK        -0.1981 
     24 N          23.6526   -0.6621   -4.7971 N.am      4 UNK        -0.4209 
     25 C          22.3389   -0.8496   -4.6259 C.2       3 UNK         0.4942 
     26 O          21.5204    0.0640   -4.5135 O.2       3 UNK        -0.5208 
     27 CA         21.8630   -2.3083   -4.5255 C.3       3 UNK         0.0250 
     28 CB         21.5644   -2.8886   -5.9176 C.3       3 UNK        -0.1990 
     29 N          22.8722   -3.1256   -3.8483 N.am      3 UNK        -0.4232 
     30 C          22.9876   -3.2213   -2.5161 C.2       2 UNK         0.4993 
     31 O          22.1400   -2.7889   -1.7333 O.2       2 UNK        -0.5286 
     32 CA         24.2714   -3.8443   -1.9347 C.3       2 UNK         0.0209 
     33 CB         23.9692   -5.0721   -1.0498 C.3       2 UNK        -0.1931 
     34 N          25.3223   -4.1216   -2.9244 N.am      2 UNK        -0.4546 
     35 C          25.3699   -5.0936   -3.8484 C.2       1 UNK         0.5154 
     36 O          24.4959   -5.9501   -3.9922 O.2       1 UNK        -0.5181 
     37 C          28.2042    2.9817   -3.9880 C.2       5 UNK         0.5014 
     38 O          27.3761    3.8762   -4.1857 O.2       5 UNK        -0.5248 
     39 N          29.4992    3.0689   -4.3248 N.am      6 UNK        -0.4434 
     40 CA         30.1504    4.1706   -5.0564 C.3       6 UNK         0.0363 
     41 CB         30.0549    5.5022   -4.2811 C.3       6 UNK        -0.1936 
     42 C          29.6842    4.3088   -6.5246 C.2       6 UNK         0.5081 
     43 O          29.9933    5.3103   -7.1702 O.2       6 UNK        -0.5248 
     44 N          28.9706    3.2940   -7.0254 N.am      7 UNK        -0.4718 
     45 CA         28.4360    3.1611   -8.3786 C.3       7 UNK         0.0273 
     46 CB         27.2583    4.1357   -8.5954 C.3       7 UNK        -0.1935 
     47 C          28.0421    1.6904   -8.6038 C.2       7 UNK         0.5018 
     48 O          26.9498    1.4129   -9.1008 O.2       7 UNK        -0.5186 
     49 N          28.9209    0.7736   -8.1806 N.am      8 UNK        -0.4240 
     50 CA         28.7290   -0.6747   -8.2238 C.3       8 UNK         0.0235 
     51 CB         28.3419   -1.1765   -6.8198 C.3       8 UNK        -0.2000 
     52 C          29.9887   -1.3303   -8.8135 C.2       8 UNK         0.4941 
     53 O          30.5430   -0.7897   -9.7737 O.2       8 UNK        -0.5273 
     54 N          30.4201   -2.4788   -8.2699 N.am      9 UNK        -0.4262 
     55 CA         31.5976   -3.2222   -8.7324 C.3       9 UNK         0.0264 
     56 CB         31.7283   -4.5373   -7.9490 C.3       9 UNK        -0.1955 
     57 C          32.8816   -2.3861   -8.6070 C.2       9 UNK         0.5031 
     58 O          33.2084   -1.9393   -7.5066 O.2       9 UNK        -0.5390 
     59 N          33.5564   -2.1602   -9.7415 N.am      10 UNK        -0.4204 
     60 CA         34.7469   -1.3218   -9.9475 C.3       10 UNK         0.0237 
     61 CB         35.9442   -1.8058   -9.1050 C.3       10 UNK        -0.1985 
     62 C          34.5075    0.1893   -9.7597 C.2       10 UNK         0.4970 
     63 O          34.9974    0.9694  -10.5775 O.2       10 UNK        -0.4914 
     64 N          33.7763    0.5822   -8.7097 N.am      11 UNK        -0.4285 
     65 CA         33.4235    1.9768   -8.4088 C.3       11 UNK         0.1007 
     66 C          32.3883    2.6257   -9.3717 C.2       11 UNK         0.5703 
     67 N          31.5794    1.8681  -10.1016 N.am      11 UNK        -0.7361 
     68 O          32.3391    3.8479   -9.4788 O.2       11 UNK        -0.4986 
     69 C69        33.0585    2.1869   -6.9160 C.3       12 UNK        -0.0947 
     70 S70        31.7305    1.0998   -6.2847 S.3       12 UNK        -0.2240 
     71 C71        32.5664    0.3709   -4.8437 C.3       12 UNK         0.0194 
     72 H72        25.6616   -4.6433   -8.6920 H         1 UNK         0.0906 
     73 H73        24.1087   -3.8723   -8.3559 H         1 UNK         0.0906 
     74 H74        25.5535   -2.8847   -8.5898 H         1 UNK         0.0906 
     75 H75        26.4533   -5.6145   -6.8409 H         1 UNK         0.3140 
     76 H76        26.9783   -6.1149   -4.7551 H         1 UNK         0.1085 
     77 H77        27.9681   -4.2795   -3.3298 H         1 UNK         0.0836 
     78 H78        27.4309   -3.0893   -4.4973 H         1 UNK         0.0836 
     79 H79        31.4791   -4.5467   -4.4823 H         1 UNK         0.0731 
     80 H80        30.3090   -4.8145   -3.2219 H         1 UNK         0.0731 
     81 H81        31.9556   -2.2309   -5.3235 H         1 UNK         0.1312 
     82 H82        31.1743    0.9501   -2.5552 H         1 UNK         0.1406 
     83 H83        29.4308   -2.9140   -1.9265 H         1 UNK         0.1631 
     84 H84        30.1250    0.3947   -0.3994 H         1 UNK         0.0717 
     85 H85        29.6081   -1.2354   -0.0827 H         1 UNK         0.0717 
     86 H86        27.2644    2.3551   -1.3329 H         1 UNK         0.0934 
     87 H87        28.9646    2.0837   -1.5737 H         1 UNK         0.0934 
     88 H88        28.3212    0.8489   -3.7986 H         1 UNK         0.0739 
     89 H89        25.9037    2.4245   -3.8963 H         1 UNK         0.3093 
     90 H90        23.7863    1.3317   -4.1674 H         1 UNK         0.0818 
     91 H91        25.0307    2.0998   -6.2219 H         1 UNK         0.0819 
     92 H92        25.0887    0.4480   -6.8207 H         1 UNK         0.0819 
     93 H93        23.5450    1.2856   -6.6807 H         1 UNK         0.0819 
     94 H94        24.2650   -1.4687   -4.9065 H         1 UNK         0.3041 
     95 H95        20.9357   -2.3243   -3.9486 H         1 UNK         0.0784 
     96 H96        20.7654   -2.3291   -6.4056 H         1 UNK         0.0793 
     97 H97        22.4340   -2.8472   -6.5731 H         1 UNK         0.0793 
     98 H98        21.2412   -3.9276   -5.8533 H         1 UNK         0.0793 
     99 H99        23.6315   -3.4702   -4.4248 H         1 UNK         0.3024 
    100 H100       24.6910   -3.0758   -1.2831 H         1 UNK         0.1171 
    101 H101       23.4602   -5.8614   -1.6030 H         1 UNK         0.0786 
    102 H102       24.8812   -5.4911   -0.6248 H         1 UNK         0.0786 
    103 H103       23.3209   -4.7985   -0.2164 H         1 UNK         0.0786 
    104 H104       26.0546   -3.4241   -2.9588 H         1 UNK         0.2977 
    105 H105       30.0949    2.2732   -4.1417 H         1 UNK         0.3127 
    106 H106       31.2073    3.9085   -5.1028 H         1 UNK         0.0770 
    107 H107       29.0390    5.8975   -4.2715 H         1 UNK         0.0814 
    108 H108       30.6901    6.2632   -4.7359 H         1 UNK         0.0814 
    109 H109       30.3814    5.3856   -3.2478 H         1 UNK         0.0814 
    110 H110       28.7720    2.5183   -6.4104 H         1 UNK         0.2983 
    111 H111       29.2267    3.4006   -9.0923 H         1 UNK         0.0947 
    112 H112       26.8519    4.0416   -9.6031 H         1 UNK         0.0806 
    113 H113       27.5669    5.1736   -8.4724 H         1 UNK         0.0806 
    114 H114       26.4458    3.9429   -7.8938 H         1 UNK         0.0806 
    115 H115       29.8288    1.0805   -7.8565 H         1 UNK         0.3000 
    116 H116       27.9147   -0.9201   -8.9085 H         1 UNK         0.0850 
    117 H117       29.1537   -1.0613   -6.1003 H         1 UNK         0.0810 
    118 H118       28.0551   -2.2266   -6.8447 H         1 UNK         0.0810 
    119 H119       27.4800   -0.6334   -6.4335 H         1 UNK         0.0810 
    120 H120       29.9429   -2.8461   -7.4580 H         1 UNK         0.3040 
    121 H121       31.4336   -3.4709   -9.7829 H         1 UNK         0.0766 
    122 H122       30.8287   -5.1468   -8.0366 H         1 UNK         0.0812 
    123 H123       31.9120   -4.3566   -6.8899 H         1 UNK         0.0812 
    124 H124       32.5615   -5.1326   -8.3244 H         1 UNK         0.0812 
    125 H125       33.1635   -2.5418  -10.5914 H         1 UNK         0.3205 
    126 H126       35.0161   -1.4606  -10.9959 H         1 UNK         0.0754 
    127 H127       36.8469   -1.2486   -9.3591 H         1 UNK         0.0769 
    128 H128       36.1535   -2.8606   -9.2828 H         1 UNK         0.0769 
    129 H129       35.7751   -1.6731   -8.0360 H         1 UNK         0.0769 
    130 H130       33.4153   -0.1314   -8.0819 H         1 UNK         0.2981 
    131 H131       34.3367    2.5541   -8.5678 H         1 UNK         0.0541 
    132 H132       31.5493    0.8591   -9.9960 H         1 UNK         0.3459 
    133 H133       30.9524    2.3137  -10.7503 H         1 UNK         0.3459 
    134 H134       32.7752    3.2247   -6.7351 H         1 UNK         0.0612 
    135 H135       33.9562    2.0300   -6.3164 H         1 UNK         0.0612 
    136 H136       33.4332   -0.1974   -5.1855 H         1 UNK         0.0624 
    137 H137       32.9516    1.1703   -4.2088 H         1 UNK         0.0624 
@<TRIPOS>BOND
     1    1    2 1    
     2    1   72 1    
     3    1   73 1    
     4    1   74 1    
     5    2    3 2    
     6    2    4 am   BACKBONE|DICT|INTERRES
     7    4    5 1    
     8    4   75 1    
     9    5    6 1    
    10    5   35 1    
    11    5   76 1    
    12    6    7 1    
    13    6   77 1    
    14    6   78 1    
    15    7    8 1    
    16    8    9 1    
    17    8   79 1    
    18    8   80 1    
    19    9   10 ar   
    20    9   14 ar   
    21   10   11 ar   
    22   10   81 1    
    23   11   12 ar   
    24   11   71 1    
    25   12   13 ar   
    26   12   82 1    
    27   13   14 ar   
    28   13   15 1    
    29   14   83 1    
    30   15   16 1    
    31   15   84 1    
    32   15   85 1    
    33   16   17 1    
    34   17   18 1    
    35   17   86 1    
    36   17   87 1    
    37   18   19 1    
    38   18   37 1    
    39   18   88 1    
    40   19   20 am   BACKBONE|DICT|INTERRES
    41   19   89 1    
    42   20   21 2    
    43   20   22 1    
    44   22   23 1    
    45   22   24 1    
    46   22   90 1    
    47   23   91 1    
    48   23   92 1    
    49   23   93 1    
    50   24   25 am   BACKBONE|DICT|INTERRES
    51   24   94 1    
    52   25   26 2    
    53   25   27 1    
    54   27   28 1    
    55   27   29 1    
    56   27   95 1    
    57   28   96 1    
    58   28   97 1    
    59   28   98 1    
    60   29   30 am   BACKBONE|DICT|INTERRES
    61   29   99 1    
    62   30   31 2    
    63   30   32 1    
    64   32   33 1    
    65   32   34 1    
    66   32  100 1    
    67   33  101 1    
    68   33  102 1    
    69   33  103 1    
    70   34   35 am   BACKBONE|DICT|INTERRES
    71   34  104 1    
    72   35   36 2    
    73   37   38 2    
    74   37   39 am   BACKBONE|DICT|INTERRES
    75   39   40 1    
    76   39  105 1    
    77   40   41 1    
    78   40   42 1    
    79   40  106 1    
    80   41  107 1    
    81   41  108 1    
    82   41  109 1    
    83   42   43 2    
    84   42   44 am   BACKBONE|DICT|INTERRES
    85   44   45 1    
    86   44  110 1    
    87   45   46 1    
    88   45   47 1    
    89   45  111 1    
    90   46  112 1    
    91   46  113 1    
    92   46  114 1    
    93   47   48 2    
    94   47   49 am   BACKBONE|DICT|INTERRES
    95   49   50 1    
    96   49  115 1    
    97   50   51 1    
    98   50   52 1    
    99   50  116 1    
   100   51  117 1    
   101   51  118 1    
   102   51  119 1    
   103   52   53 2    
   104   52   54 am   BACKBONE|DICT|INTERRES
   105   54   55 1    
   106   54  120 1    
   107   55   56 1    
   108   55   57 1    
   109   55  121 1    
   110   56  122 1    
   111   56  123 1    
   112   56  124 1    
   113   57   58 2    
   114   57   59 am   BACKBONE|DICT|INTERRES
   115   59   60 1    
   116   59  125 1    
   117   60   61 1    
   118   60   62 1    
   119   60  126 1    
   120   61  127 1    
   121   61  128 1    
   122   61  129 1    
   123   62   63 2    
   124   62   64 am   BACKBONE|DICT|INTERRES
   125   64   65 1    
   126   64  130 1    
   127   65   66 1    
   128   65   69 1    
   129   65  131 1    
   130   66   67 am   BACKBONE|DICT|INTERRES
   131   66   68 2    
   132   67  132 1    
   133   67  133 1    
   134   69   70 1    
   135   69  134 1    
   136   69  135 1    
   137   70   71 1    
   138   71  136 1    
   139   71  137 1    
@<TRIPOS>SUBSTRUCTURE
     1 UNK         1 GROUP             0       ****    0 ROOT    
