@<TRIPOS>MOLECULE
3R137
137   139    1
SMALL
USER_CHARGES


@<TRIPOS>ATOM
      1 CA         30.0068   -4.8413   -1.2018 C.3       0 UNK        -0.2020 
      2 C          29.0251   -3.8359   -0.6195 C.2       0 UNK         0.4855 
      3 O          28.3584   -4.1320    0.3719 O.2       0 UNK        -0.5197 
      4 N          28.9399   -2.6453   -1.2263 N.am      1 UNK        -0.4892 
      5 CA         28.1032   -1.5211   -0.7834 C.3       1 UNK         0.0835 
      6 C6         28.4177   -0.2246   -1.5717 C.3       12 UNK        -0.0855 
      7 S7         30.1641    0.2969   -1.4864 S.3       12 UNK        -0.2931 
      8 C8         30.6480    0.2764   -3.2433 C.3       12 UNK         0.0378 
      9 C9         31.0660   -1.1149   -3.6912 C.ar      12 UNK        -0.0802 
     10 C10        32.4051   -1.4978   -3.5938 C.ar      12 UNK        -0.0944 
     11 C11        32.8201   -2.7686   -4.0074 C.ar      12 UNK        -0.0787 
     12 C12        31.8664   -3.6656   -4.4995 C.ar      12 UNK        -0.0862 
     13 C13        30.5168   -3.3037   -4.5851 C.ar      12 UNK        -0.0733 
     14 C14        30.1267   -2.0179   -4.1957 C.ar      12 UNK        -0.0832 
     15 C15        29.4856   -4.3245   -5.0517 C.3       12 UNK         0.0240 
     16 S16        28.6894   -3.8566   -6.6196 S.3       12 UNK        -0.2522 
     17 C17        27.1425   -3.0966   -6.0311 C.3       12 UNK        -0.0967 
     18 CA         26.6074   -1.9993   -6.9829 C.3       5 UNK         0.0660 
     19 N          25.1569   -1.8687   -6.8586 N.am      5 UNK        -0.4015 
     20 C          24.3468   -1.3376   -7.7823 C.2       4 UNK         0.4946 
     21 O          24.7287   -0.9315   -8.8795 O.2       4 UNK        -0.5353 
     22 CA         22.8565   -1.2318   -7.4107 C.3       4 UNK         0.0277 
     23 CB         22.0949   -2.4797   -7.8851 C.3       4 UNK        -0.1981 
     24 N          22.6331   -1.0404   -5.9729 N.am      4 UNK        -0.4209 
     25 C          22.9555    0.0786   -5.3096 C.2       3 UNK         0.4942 
     26 O          23.4548    1.0684   -5.8443 O.2       3 UNK        -0.5208 
     27 CA         22.7296    0.0752   -3.7873 C.3       3 UNK         0.0250 
     28 CB         21.2502    0.3342   -3.4592 C.3       3 UNK        -0.1990 
     29 N          23.1856   -1.1404   -3.0961 N.am      3 UNK        -0.4232 
     30 C          24.4316   -1.6309   -3.1497 C.2       2 UNK         0.4993 
     31 O          25.3022   -1.2036   -3.9104 O.2       2 UNK        -0.5286 
     32 CA         24.7765   -2.8088   -2.2239 C.3       2 UNK         0.0209 
     33 CB         24.5951   -4.1455   -2.9600 C.3       2 UNK        -0.1931 
     34 N          26.1679   -2.6878   -1.7789 N.am      2 UNK        -0.4546 
     35 C          26.5847   -1.7920   -0.8722 C.2       1 UNK         0.5154 
     36 O          25.8169   -1.1486   -0.1542 O.2       1 UNK        -0.5181 
     37 C          27.2911   -0.6316   -6.7803 C.2       5 UNK         0.5014 
     38 O          28.1688   -0.2710   -7.5621 O.2       5 UNK        -0.5248 
     39 N          26.8287    0.1355   -5.7803 N.am      6 UNK        -0.4434 
     40 CA         27.2252    1.5220   -5.5205 C.3       6 UNK         0.0363 
     41 CB         26.5577    2.0231   -4.2296 C.3       6 UNK        -0.1936 
     42 C          26.8992    2.4633   -6.6903 C.2       6 UNK         0.5081 
     43 O          27.7447    3.2759   -7.0627 O.2       6 UNK        -0.5248 
     44 N          25.7080    2.3070   -7.2868 N.am      7 UNK        -0.4718 
     45 CA         25.2738    3.0366   -8.4847 C.3       7 UNK         0.0273 
     46 CB         23.8001    2.7114   -8.7739 C.3       7 UNK        -0.1935 
     47 C          26.1412    2.7587   -9.7278 C.2       7 UNK         0.5018 
     48 O          26.2630    3.6337  -10.5855 O.2       7 UNK        -0.5186 
     49 N          26.7473    1.5660   -9.7882 N.am      8 UNK        -0.4240 
     50 CA         27.7029    1.1526  -10.8165 C.3       8 UNK         0.0235 
     51 CB         27.5385   -0.3591  -11.0552 C.3       8 UNK        -0.2000 
     52 C          29.1628    1.4939  -10.4538 C.2       8 UNK         0.4941 
     53 O          30.0603    1.1154  -11.2085 O.2       8 UNK        -0.5273 
     54 N          29.3979    2.1540   -9.3076 N.am      9 UNK        -0.4262 
     55 CA         30.6828    2.5292   -8.6934 C.3       9 UNK         0.0264 
     56 CB         31.5078    3.4541   -9.6092 C.3       9 UNK        -0.1955 
     57 C          31.5286    1.3434   -8.1905 C.2       9 UNK         0.5031 
     58 O          32.1221    1.4483   -7.1145 O.2       9 UNK        -0.5390 
     59 N          31.5640    0.2479   -8.9610 N.am      10 UNK        -0.4204 
     60 CA         32.2321   -1.0249   -8.6827 C.3       10 UNK         0.0237 
     61 CB         31.4872   -1.7722   -7.5603 C.3       10 UNK        -0.1985 
     62 C          33.7377   -0.8345   -8.4288 C.2       10 UNK         0.4970 
     63 O          34.4262   -0.3319   -9.3193 O.2       10 UNK        -0.4914 
     64 N          34.2238   -1.2307   -7.2450 N.am      11 UNK        -0.4285 
     65 CA         35.6189   -1.0437   -6.8257 C.3       11 UNK         0.1007 
     66 C          35.9858    0.4104   -6.3967 C.2       11 UNK         0.5703 
     67 N          35.0484    1.3502   -6.3259 N.am      11 UNK        -0.7361 
     68 O          37.1537    0.6955   -6.1412 O.2       11 UNK        -0.4986 
     69 C69        36.0659   -2.1341   -5.8129 C.3       12 UNK        -0.0947 
     70 S70        35.5058   -1.8973   -4.0895 S.3       12 UNK        -0.2240 
     71 C71        34.2706   -3.2220   -3.8496 C.3       12 UNK         0.0194 
     72 H72        29.4776   -5.5845   -1.7974 H         1 UNK         0.0906 
     73 H73        30.7516   -4.3585   -1.8337 H         1 UNK         0.0906 
     74 H74        30.5357   -5.3589   -0.4019 H         1 UNK         0.0906 
     75 H75        29.5599   -2.4407   -1.9986 H         1 UNK         0.3140 
     76 H76        28.3298   -1.3437    0.2703 H         1 UNK         0.1085 
     77 H77        28.1213   -0.3418   -2.6148 H         1 UNK         0.0836 
     78 H78        27.8215    0.6050   -1.1853 H         1 UNK         0.0836 
     79 H79        29.8375    0.6537   -3.8664 H         1 UNK         0.0731 
     80 H80        31.4774    0.9714   -3.3846 H         1 UNK         0.0731 
     81 H81        33.1214   -0.8010   -3.1811 H         1 UNK         0.1312 
     82 H82        32.1730   -4.6608   -4.7920 H         1 UNK         0.1406 
     83 H83        29.0929   -1.7185   -4.2760 H         1 UNK         0.1631 
     84 H84        29.9570   -5.2978   -5.1955 H         1 UNK         0.0717 
     85 H85        28.7352   -4.4719   -4.2739 H         1 UNK         0.0717 
     86 H86        26.4215   -3.9134   -5.9701 H         1 UNK         0.0934 
     87 H87        27.2448   -2.7252   -5.0116 H         1 UNK         0.0934 
     88 H88        26.8109   -2.3130   -8.0097 H         1 UNK         0.0739 
     89 H89        24.7653   -2.1016   -5.9573 H         1 UNK         0.3093 
     90 H90        22.4493   -0.3643   -7.9348 H         1 UNK         0.0818 
     91 H91        21.0242   -2.3845   -7.7031 H         1 UNK         0.0819 
     92 H92        22.2264   -2.6313   -8.9576 H         1 UNK         0.0819 
     93 H93        22.4430   -3.3835   -7.3835 H         1 UNK         0.0819 
     94 H94        22.2219   -1.8070   -5.4599 H         1 UNK         0.3041 
     95 H95        23.3115    0.9051   -3.3806 H         1 UNK         0.0784 
     96 H96        20.8935    1.2399   -3.9523 H         1 UNK         0.0793 
     97 H97        20.6116   -0.4876   -3.7854 H         1 UNK         0.0793 
     98 H98        21.0993    0.4722   -2.3884 H         1 UNK         0.0793 
     99 H99        22.5248   -1.5670   -2.4621 H         1 UNK         0.3024 
    100 H100       24.1192   -2.7874   -1.3516 H         1 UNK         0.1171 
    101 H101       24.8289   -4.9886   -2.3095 H         1 UNK         0.0786 
    102 H102       23.5644   -4.2726   -3.2940 H         1 UNK         0.0786 
    103 H103       25.2346   -4.2162   -3.8398 H         1 UNK         0.0786 
    104 H104       26.8676   -3.1598   -2.3303 H         1 UNK         0.2977 
    105 H105       26.1355   -0.2649   -5.1474 H         1 UNK         0.3127 
    106 H106       28.3072    1.5344   -5.3816 H         1 UNK         0.0770 
    107 H107       25.4726    2.0643   -4.3255 H         1 UNK         0.0814 
    108 H108       26.9006    3.0280   -3.9799 H         1 UNK         0.0814 
    109 H109       26.7870    1.3823   -3.3811 H         1 UNK         0.0814 
    110 H110       25.0353    1.6675   -6.8716 H         1 UNK         0.2983 
    111 H111       25.3529    4.1038   -8.2667 H         1 UNK         0.0947 
    112 H112       23.4387    3.2700   -9.6384 H         1 UNK         0.0806 
    113 H113       23.1622    2.9731   -7.9294 H         1 UNK         0.0806 
    114 H114       23.6565    1.6518   -8.9865 H         1 UNK         0.0806 
    115 H115       26.5879    0.9076   -9.0360 H         1 UNK         0.3000 
    116 H116       27.4746    1.6693  -11.7510 H         1 UNK         0.0850 
    117 H117       28.1736   -0.7003  -11.8737 H         1 UNK         0.0810 
    118 H118       26.5104   -0.6097  -11.3180 H         1 UNK         0.0810 
    119 H119       27.8066   -0.9385  -10.1711 H         1 UNK         0.0810 
    120 H120       28.5941    2.3802   -8.7314 H         1 UNK         0.3040 
    121 H121       30.4154    3.1074   -7.8076 H         1 UNK         0.0766 
    122 H122       30.9330    4.3303   -9.9088 H         1 UNK         0.0812 
    123 H123       31.8419    2.9452  -10.5136 H         1 UNK         0.0812 
    124 H124       32.4001    3.8116   -9.0936 H         1 UNK         0.0812 
    125 H125       31.0845    0.3179   -9.8558 H         1 UNK         0.3205 
    126 H126       32.1476   -1.6228   -9.5912 H         1 UNK         0.0754 
    127 H127       31.8980   -2.7692   -7.3972 H         1 UNK         0.0769 
    128 H128       30.4373   -1.8969   -7.8215 H         1 UNK         0.0769 
    129 H129       31.5206   -1.2309   -6.6149 H         1 UNK         0.0769 
    130 H130       33.5907   -1.5932   -6.5471 H         1 UNK         0.2981 
    131 H131       36.2279   -1.2181   -7.7149 H         1 UNK         0.0541 
    132 H132       34.0809    1.1517   -6.5572 H         1 UNK         0.3459 
    133 H133       35.3122    2.2825   -6.0516 H         1 UNK         0.3459 
    134 H134       37.1564   -2.1654   -5.7841 H         1 UNK         0.0612 
    135 H135       35.7650   -3.1196   -6.1702 H         1 UNK         0.0612 
    136 H136       34.3874   -3.6072   -2.8360 H         1 UNK         0.0624 
    137 H137       34.4901   -4.0569   -4.5162 H         1 UNK         0.0624 
@<TRIPOS>BOND
     1    1    2 1    
     2    1   72 1    
     3    1   73 1    
     4    1   74 1    
     5    2    3 2    
     6    2    4 am   BACKBONE|DICT|INTERRES
     7    4    5 1    
     8    4   75 1    
     9    5    6 1    
    10    5   35 1    
    11    5   76 1    
    12    6    7 1    
    13    6   77 1    
    14    6   78 1    
    15    7    8 1    
    16    8    9 1    
    17    8   79 1    
    18    8   80 1    
    19    9   10 ar   
    20    9   14 ar   
    21   10   11 ar   
    22   10   81 1    
    23   11   12 ar   
    24   11   71 1    
    25   12   13 ar   
    26   12   82 1    
    27   13   14 ar   
    28   13   15 1    
    29   14   83 1    
    30   15   16 1    
    31   15   84 1    
    32   15   85 1    
    33   16   17 1    
    34   17   18 1    
    35   17   86 1    
    36   17   87 1    
    37   18   19 1    
    38   18   37 1    
    39   18   88 1    
    40   19   20 am   BACKBONE|DICT|INTERRES
    41   19   89 1    
    42   20   21 2    
    43   20   22 1    
    44   22   23 1    
    45   22   24 1    
    46   22   90 1    
    47   23   91 1    
    48   23   92 1    
    49   23   93 1    
    50   24   25 am   BACKBONE|DICT|INTERRES
    51   24   94 1    
    52   25   26 2    
    53   25   27 1    
    54   27   28 1    
    55   27   29 1    
    56   27   95 1    
    57   28   96 1    
    58   28   97 1    
    59   28   98 1    
    60   29   30 am   BACKBONE|DICT|INTERRES
    61   29   99 1    
    62   30   31 2    
    63   30   32 1    
    64   32   33 1    
    65   32   34 1    
    66   32  100 1    
    67   33  101 1    
    68   33  102 1    
    69   33  103 1    
    70   34   35 am   BACKBONE|DICT|INTERRES
    71   34  104 1    
    72   35   36 2    
    73   37   38 2    
    74   37   39 am   BACKBONE|DICT|INTERRES
    75   39   40 1    
    76   39  105 1    
    77   40   41 1    
    78   40   42 1    
    79   40  106 1    
    80   41  107 1    
    81   41  108 1    
    82   41  109 1    
    83   42   43 2    
    84   42   44 am   BACKBONE|DICT|INTERRES
    85   44   45 1    
    86   44  110 1    
    87   45   46 1    
    88   45   47 1    
    89   45  111 1    
    90   46  112 1    
    91   46  113 1    
    92   46  114 1    
    93   47   48 2    
    94   47   49 am   BACKBONE|DICT|INTERRES
    95   49   50 1    
    96   49  115 1    
    97   50   51 1    
    98   50   52 1    
    99   50  116 1    
   100   51  117 1    
   101   51  118 1    
   102   51  119 1    
   103   52   53 2    
   104   52   54 am   BACKBONE|DICT|INTERRES
   105   54   55 1    
   106   54  120 1    
   107   55   56 1    
   108   55   57 1    
   109   55  121 1    
   110   56  122 1    
   111   56  123 1    
   112   56  124 1    
   113   57   58 2    
   114   57   59 am   BACKBONE|DICT|INTERRES
   115   59   60 1    
   116   59  125 1    
   117   60   61 1    
   118   60   62 1    
   119   60  126 1    
   120   61  127 1    
   121   61  128 1    
   122   61  129 1    
   123   62   63 2    
   124   62   64 am   BACKBONE|DICT|INTERRES
   125   64   65 1    
   126   64  130 1    
   127   65   66 1    
   128   65   69 1    
   129   65  131 1    
   130   66   67 am   BACKBONE|DICT|INTERRES
   131   66   68 2    
   132   67  132 1    
   133   67  133 1    
   134   69   70 1    
   135   69  134 1    
   136   69  135 1    
   137   70   71 1    
   138   71  136 1    
   139   71  137 1    
@<TRIPOS>SUBSTRUCTURE
     1 UNK         1 GROUP             0       ****    0 ROOT    
