@<TRIPOS>MOLECULE
3R137
137   139    1
SMALL
USER_CHARGES


@<TRIPOS>ATOM
      1 CA         31.8905    0.2766   -0.2238 C.3       0 UNK        -0.2020 
      2 C          31.2579   -0.9762   -0.8105 C.2       0 UNK         0.4855 
      3 O          31.9386   -1.7361   -1.4942 O.2       0 UNK        -0.5197 
      4 N          29.9667   -1.1945   -0.5397 N.am      1 UNK        -0.4892 
      5 CA         29.1491   -2.3039   -1.0477 C.3       1 UNK         0.0835 
      6 C6         29.4369   -3.6272   -0.2799 C.3       12 UNK        -0.0855 
      7 S7         28.7701   -5.1430   -1.0580 S.3       12 UNK        -0.2931 
      8 C8         30.1986   -5.8064   -1.9737 C.3       12 UNK         0.0378 
      9 C9         30.3113   -5.1718   -3.3504 C.ar      12 UNK        -0.0802 
     10 C10        31.2580   -4.1743   -3.5961 C.ar      12 UNK        -0.0944 
     11 C11        31.3343   -3.5595   -4.8491 C.ar      12 UNK        -0.0787 
     12 C12        30.4611   -3.9610   -5.8632 C.ar      12 UNK        -0.0862 
     13 C13        29.5153   -4.9645   -5.6340 C.ar      12 UNK        -0.0733 
     14 C14        29.4539   -5.5758   -4.3784 C.ar      12 UNK        -0.0832 
     15 C15        28.5273   -5.3444   -6.7301 C.3       12 UNK         0.0240 
     16 S16        26.7913   -5.0197   -6.2635 S.3       12 UNK        -0.2522 
     17 C17        26.8586   -3.2908   -5.6878 C.3       12 UNK        -0.0967 
     18 CA         26.5885   -2.2720   -6.8276 C.3       5 UNK         0.0660 
     19 N          25.2002   -1.7998   -6.8018 N.am      5 UNK        -0.4015 
     20 C          24.6389   -0.9138   -7.6382 C.2       4 UNK         0.4946 
     21 O          25.2274   -0.3926   -8.5837 O.2       4 UNK        -0.5353 
     22 CA         23.1785   -0.5158   -7.3603 C.3       4 UNK         0.0277 
     23 CB         22.2220   -1.3449   -8.2317 C.3       4 UNK        -0.1981 
     24 N          22.8095   -0.6633   -5.9492 N.am      4 UNK        -0.4209 
     25 C          23.2730    0.1155   -4.9613 C.2       3 UNK         0.4942 
     26 O          23.9593    1.1213   -5.1574 O.2       3 UNK        -0.5208 
     27 CA         22.9221   -0.3025   -3.5161 C.3       3 UNK         0.0250 
     28 CB         22.5362   -1.7938   -3.3757 C.3       3 UNK        -0.1990 
     29 N          23.9825    0.0268   -2.5537 N.am      3 UNK        -0.4232 
     30 C          25.2710   -0.3469   -2.6018 C.2       2 UNK         0.4993 
     31 O          25.7638   -1.0041   -3.5234 O.2       2 UNK        -0.5286 
     32 CA         26.1679    0.1500   -1.4491 C.3       2 UNK         0.0209 
     33 CB         25.4576    0.1528   -0.0749 C.3       2 UNK        -0.1931 
     34 N          27.4528   -0.5635   -1.3803 N.am      2 UNK        -0.4546 
     35 C          27.6688   -1.8478   -1.0448 C.2       1 UNK         0.5154 
     36 O          26.7738   -2.6175   -0.6927 O.2       1 UNK        -0.5181 
     37 C          27.5990   -1.1099   -6.7785 C.2       5 UNK         0.5014 
     38 O          28.4992   -1.0531   -7.6187 O.2       5 UNK        -0.5248 
     39 N          27.3973   -0.1885   -5.8252 N.am      6 UNK        -0.4434 
     40 CA         28.1994    1.0240   -5.6476 C.3       6 UNK         0.0363 
     41 CB         27.7256    1.7794   -4.3988 C.3       6 UNK        -0.1936 
     42 C          28.2096    1.9617   -6.8637 C.2       6 UNK         0.5081 
     43 O          29.2254    2.6158   -7.0976 O.2       6 UNK        -0.5248 
     44 N          27.1001    2.0083   -7.6115 N.am      7 UNK        -0.4718 
     45 CA         26.9850    2.7700   -8.8535 C.3       7 UNK         0.0273 
     46 CB         25.5084    3.1031   -9.1237 C.3       7 UNK        -0.1935 
     47 C          27.6065    2.0113  -10.0353 C.2       7 UNK         0.5018 
     48 O          28.3750    2.6036  -10.7923 O.2       7 UNK        -0.5186 
     49 N          27.2724    0.7190  -10.1647 N.am      8 UNK        -0.4240 
     50 CA         27.7011   -0.1631  -11.2528 C.3       8 UNK         0.0235 
     51 CB         26.9543   -1.5036  -11.1533 C.3       8 UNK        -0.2000 
     52 C          29.2189   -0.3928  -11.2986 C.2       8 UNK         0.4941 
     53 O          29.8106   -0.2910  -12.3742 O.2       8 UNK        -0.5273 
     54 N          29.8219   -0.6876  -10.1393 N.am      9 UNK        -0.4262 
     55 CA         31.2658   -0.9023  -10.0019 C.3       9 UNK         0.0264 
     56 CB         31.5103   -1.9188   -8.8780 C.3       9 UNK        -0.1955 
     57 C          32.0424    0.3960   -9.7236 C.2       9 UNK         0.5031 
     58 O          33.2734    0.3632   -9.7328 O.2       9 UNK        -0.5390 
     59 N          31.3242    1.4960   -9.4489 N.am      10 UNK        -0.4204 
     60 CA         31.8247    2.8207   -9.0577 C.3       10 UNK         0.0237 
     61 CB         32.6632    3.4555  -10.1881 C.3       10 UNK        -0.1985 
     62 C          32.5513    2.8404   -7.6945 C.2       10 UNK         0.4970 
     63 O          33.2853    3.7913   -7.4186 O.2       10 UNK        -0.4914 
     64 N          32.3324    1.8130   -6.8612 N.am      11 UNK        -0.4285 
     65 CA         32.8804    1.7003   -5.5018 C.3       11 UNK         0.1007 
     66 C          32.1162    2.5223   -4.4231 C.2       11 UNK         0.5703 
     67 N          30.9820    3.1402   -4.7321 N.am      11 UNK        -0.7361 
     68 O          32.5773    2.6238   -3.2888 O.2       11 UNK        -0.4986 
     69 C69        33.1117    0.2216   -5.0889 C.3       12 UNK        -0.0947 
     70 S70        31.6070   -0.8090   -5.0352 S.3       12 UNK        -0.2240 
     71 C71        32.3586   -2.4642   -5.1056 C.3       12 UNK         0.0194 
     72 H72        31.1804    0.8602    0.3616 H         1 UNK         0.0906 
     73 H73        32.7247    0.0076    0.4235 H         1 UNK         0.0906 
     74 H74        32.2716    0.9108   -1.0242 H         1 UNK         0.0906 
     75 H75        29.4719   -0.5487    0.0620 H         1 UNK         0.3140 
     76 H76        29.4107   -2.4585   -2.0972 H         1 UNK         0.1085 
     77 H77        30.5128   -3.7590   -0.1597 H         1 UNK         0.0836 
     78 H78        29.0405   -3.5626    0.7349 H         1 UNK         0.0836 
     79 H79        31.1158   -5.6692   -1.3990 H         1 UNK         0.0731 
     80 H80        30.0717   -6.8842   -2.0862 H         1 UNK         0.0731 
     81 H81        31.9278   -3.8670   -2.8058 H         1 UNK         0.1312 
     82 H82        30.5024   -3.4753   -6.8257 H         1 UNK         0.1406 
     83 H83        28.7109   -6.3393   -4.1898 H         1 UNK         0.1631 
     84 H84        28.6401   -6.4039   -6.9631 H         1 UNK         0.0717 
     85 H85        28.7451   -4.8019   -7.6517 H         1 UNK         0.0717 
     86 H86        27.8070   -3.1088   -5.1811 H         1 UNK         0.0934 
     87 H87        26.1213   -3.1898   -4.8902 H         1 UNK         0.0934 
     88 H88        26.7359   -2.7588   -7.7938 H         1 UNK         0.0739 
     89 H89        24.6341   -2.1516   -6.0452 H         1 UNK         0.3093 
     90 H90        23.0681    0.5356   -7.6354 H         1 UNK         0.0818 
     91 H91        21.1880   -1.0248   -8.1019 H         1 UNK         0.0819 
     92 H92        22.4636   -1.2314   -9.2897 H         1 UNK         0.0819 
     93 H93        22.2777   -2.4088   -7.9978 H         1 UNK         0.0819 
     94 H94        22.2246   -1.4509   -5.7089 H         1 UNK         0.3041 
     95 H95        22.0548    0.2952   -3.2322 H         1 UNK         0.0784 
     96 H96        21.6310   -2.0325   -3.9350 H         1 UNK         0.0793 
     97 H97        23.3318   -2.4549   -3.7224 H         1 UNK         0.0793 
     98 H98        22.3335   -2.0474   -2.3349 H         1 UNK         0.0793 
     99 H99        23.6941    0.6124   -1.7830 H         1 UNK         0.3024 
    100 H100       26.4111    1.1866   -1.6865 H         1 UNK         0.1171 
    101 H101       26.1497    0.4100    0.7271 H         1 UNK         0.0786 
    102 H102       25.0225   -0.8190    0.1614 H         1 UNK         0.0786 
    103 H103       24.6528    0.8877   -0.0411 H         1 UNK         0.0786 
    104 H104       28.2549   -0.0345   -1.6917 H         1 UNK         0.2977 
    105 H105       26.6596   -0.3551   -5.1443 H         1 UNK         0.3127 
    106 H106       29.2308    0.7133   -5.4835 H         1 UNK         0.0770 
    107 H107       26.6483    1.9503   -4.4133 H         1 UNK         0.0814 
    108 H108       28.2075    2.7538   -4.3134 H         1 UNK         0.0814 
    109 H109       27.9758    1.2229   -3.4989 H         1 UNK         0.0814 
    110 H110       26.3241    1.4094   -7.3641 H         1 UNK         0.2983 
    111 H111       27.5256    3.7130   -8.7412 H         1 UNK         0.0947 
    112 H112       25.4038    3.6916  -10.0362 H         1 UNK         0.0806 
    113 H113       25.0804    3.6889   -8.3100 H         1 UNK         0.0806 
    114 H114       24.9007    2.2058   -9.2442 H         1 UNK         0.0806 
    115 H115       26.6084    0.3217   -9.5006 H         1 UNK         0.3000 
    116 H116       27.4137    0.3153  -12.1915 H         1 UNK         0.0850 
    117 H117       27.2464   -2.1768  -11.9605 H         1 UNK         0.0810 
    118 H118       25.8757   -1.3615  -11.2235 H         1 UNK         0.0810 
    119 H119       27.1617   -2.0115  -10.2106 H         1 UNK         0.0810 
    120 H120       29.2623   -0.7742   -9.2906 H         1 UNK         0.3040 
    121 H121       31.6617   -1.3256  -10.9275 H         1 UNK         0.0766 
    122 H122       32.5727   -2.1416   -8.7707 H         1 UNK         0.0812 
    123 H123       31.1579   -1.5386   -7.9196 H         1 UNK         0.0812 
    124 H124       30.9997   -2.8601   -9.0805 H         1 UNK         0.0812 
    125 H125       30.3172    1.4111   -9.4800 H         1 UNK         0.3205 
    126 H126       30.9391    3.4442   -8.9301 H         1 UNK         0.0754 
    127 H127       32.8901    4.4995   -9.9686 H         1 UNK         0.0769 
    128 H128       32.1270    3.4359  -11.1370 H         1 UNK         0.0769 
    129 H129       33.6140    2.9406  -10.3279 H         1 UNK         0.0769 
    130 H130       31.6867    1.0900   -7.1392 H         1 UNK         0.2981 
    131 H131       33.8740    2.1518   -5.5269 H         1 UNK         0.0541 
    132 H132       30.5186    3.6887   -4.0268 H         1 UNK         0.3459 
    133 H133       30.5746    3.0505   -5.6559 H         1 UNK         0.3459 
    134 H134       33.5954    0.1687   -4.1118 H         1 UNK         0.0612 
    135 H135       33.8128   -0.2347   -5.7895 H         1 UNK         0.0612 
    136 H136       32.8217   -2.6109   -6.0823 H         1 UNK         0.0624 
    137 H137       33.1616   -2.5215   -4.3688 H         1 UNK         0.0624 
@<TRIPOS>BOND
     1    1    2 1    
     2    1   72 1    
     3    1   73 1    
     4    1   74 1    
     5    2    3 2    
     6    2    4 am   BACKBONE|DICT|INTERRES
     7    4    5 1    
     8    4   75 1    
     9    5    6 1    
    10    5   35 1    
    11    5   76 1    
    12    6    7 1    
    13    6   77 1    
    14    6   78 1    
    15    7    8 1    
    16    8    9 1    
    17    8   79 1    
    18    8   80 1    
    19    9   10 ar   
    20    9   14 ar   
    21   10   11 ar   
    22   10   81 1    
    23   11   12 ar   
    24   11   71 1    
    25   12   13 ar   
    26   12   82 1    
    27   13   14 ar   
    28   13   15 1    
    29   14   83 1    
    30   15   16 1    
    31   15   84 1    
    32   15   85 1    
    33   16   17 1    
    34   17   18 1    
    35   17   86 1    
    36   17   87 1    
    37   18   19 1    
    38   18   37 1    
    39   18   88 1    
    40   19   20 am   BACKBONE|DICT|INTERRES
    41   19   89 1    
    42   20   21 2    
    43   20   22 1    
    44   22   23 1    
    45   22   24 1    
    46   22   90 1    
    47   23   91 1    
    48   23   92 1    
    49   23   93 1    
    50   24   25 am   BACKBONE|DICT|INTERRES
    51   24   94 1    
    52   25   26 2    
    53   25   27 1    
    54   27   28 1    
    55   27   29 1    
    56   27   95 1    
    57   28   96 1    
    58   28   97 1    
    59   28   98 1    
    60   29   30 am   BACKBONE|DICT|INTERRES
    61   29   99 1    
    62   30   31 2    
    63   30   32 1    
    64   32   33 1    
    65   32   34 1    
    66   32  100 1    
    67   33  101 1    
    68   33  102 1    
    69   33  103 1    
    70   34   35 am   BACKBONE|DICT|INTERRES
    71   34  104 1    
    72   35   36 2    
    73   37   38 2    
    74   37   39 am   BACKBONE|DICT|INTERRES
    75   39   40 1    
    76   39  105 1    
    77   40   41 1    
    78   40   42 1    
    79   40  106 1    
    80   41  107 1    
    81   41  108 1    
    82   41  109 1    
    83   42   43 2    
    84   42   44 am   BACKBONE|DICT|INTERRES
    85   44   45 1    
    86   44  110 1    
    87   45   46 1    
    88   45   47 1    
    89   45  111 1    
    90   46  112 1    
    91   46  113 1    
    92   46  114 1    
    93   47   48 2    
    94   47   49 am   BACKBONE|DICT|INTERRES
    95   49   50 1    
    96   49  115 1    
    97   50   51 1    
    98   50   52 1    
    99   50  116 1    
   100   51  117 1    
   101   51  118 1    
   102   51  119 1    
   103   52   53 2    
   104   52   54 am   BACKBONE|DICT|INTERRES
   105   54   55 1    
   106   54  120 1    
   107   55   56 1    
   108   55   57 1    
   109   55  121 1    
   110   56  122 1    
   111   56  123 1    
   112   56  124 1    
   113   57   58 2    
   114   57   59 am   BACKBONE|DICT|INTERRES
   115   59   60 1    
   116   59  125 1    
   117   60   61 1    
   118   60   62 1    
   119   60  126 1    
   120   61  127 1    
   121   61  128 1    
   122   61  129 1    
   123   62   63 2    
   124   62   64 am   BACKBONE|DICT|INTERRES
   125   64   65 1    
   126   64  130 1    
   127   65   66 1    
   128   65   69 1    
   129   65  131 1    
   130   66   67 am   BACKBONE|DICT|INTERRES
   131   66   68 2    
   132   67  132 1    
   133   67  133 1    
   134   69   70 1    
   135   69  134 1    
   136   69  135 1    
   137   70   71 1    
   138   71  136 1    
   139   71  137 1    
@<TRIPOS>SUBSTRUCTURE
     1 UNK         1 GROUP             0       ****    0 ROOT    
