@<TRIPOS>MOLECULE
3R137
137   139    1
SMALL
USER_CHARGES


@<TRIPOS>ATOM
      1 CA         25.1971   -5.3419   -3.7500 C.3       0 UNK        -0.2020 
      2 C          25.5790   -4.6133   -2.4712 C.2       0 UNK         0.4855 
      3 O          24.7264   -4.4041   -1.6082 O.2       0 UNK        -0.5197 
      4 N          26.8561   -4.2355   -2.3355 N.am      1 UNK        -0.4892 
      5 CA         27.3852   -3.5037   -1.1793 C.3       1 UNK         0.0835 
      6 C6         28.9303   -3.5699   -1.0897 C.3       12 UNK        -0.0855 
      7 S7         29.5436   -5.2944   -1.0685 S.3       12 UNK        -0.2931 
      8 C8         31.2220   -5.1506   -1.7775 C.3       12 UNK         0.0378 
      9 C9         31.2521   -4.4093   -3.1090 C.ar      12 UNK        -0.0802 
     10 C10        32.0679   -3.2827   -3.2592 C.ar      12 UNK        -0.0944 
     11 C11        32.0609   -2.5547   -4.4519 C.ar      12 UNK        -0.0787 
     12 C12        31.2347   -2.9642   -5.4998 C.ar      12 UNK        -0.0862 
     13 C13        30.4098   -4.0855   -5.3628 C.ar      12 UNK        -0.0733 
     14 C14        30.4407   -4.8188   -4.1732 C.ar      12 UNK        -0.0832 
     15 C15        29.4474   -4.4683   -6.4805 C.3       12 UNK         0.0240 
     16 S16        27.7041   -4.1413   -6.0402 S.3       12 UNK        -0.2522 
     17 C17        27.7272   -2.3688   -5.6150 C.3       12 UNK        -0.0967 
     18 CA         27.1781   -1.4729   -6.7520 C.3       5 UNK         0.0660 
     19 N          25.7125   -1.3982   -6.7053 N.am      5 UNK        -0.4015 
     20 C          24.9214   -0.5903   -7.4266 C.2       4 UNK         0.4946 
     21 O          25.3256    0.1392   -8.3326 O.2       4 UNK        -0.5353 
     22 CA         23.4381   -0.5193   -7.0220 C.3       4 UNK         0.0277 
     23 CB         22.6073   -1.4765   -7.8912 C.3       4 UNK        -0.1981 
     24 N          23.1551   -0.7784   -5.6010 N.am      4 UNK        -0.4209 
     25 C          23.7356   -0.1859   -4.5445 C.2       3 UNK         0.4942 
     26 O          24.6649    0.6199   -4.6382 O.2       3 UNK        -0.5208 
     27 CA         23.2140   -0.5702   -3.1503 C.3       3 UNK         0.0250 
     28 CB         22.5627   -1.9700   -3.0905 C.3       3 UNK        -0.1990 
     29 N          24.3213   -0.4898   -2.2018 N.am      3 UNK        -0.4232 
     30 C          24.2286   -0.2755   -0.8863 C.2       2 UNK         0.4993 
     31 O          23.1597   -0.1150   -0.2931 O.2       2 UNK        -0.5286 
     32 CA         25.5595   -0.2753   -0.1045 C.3       2 UNK         0.0209 
     33 CB         25.3803    0.1151    1.3751 C.3       2 UNK        -0.1931 
     34 N          26.2147   -1.5862   -0.1733 N.am      2 UNK        -0.4546 
     35 C          26.8936   -2.0446   -1.2328 C.2       1 UNK         0.5154 
     36 O          27.1098   -1.3675   -2.2418 O.2       1 UNK        -0.5181 
     37 C          27.8710   -0.0953   -6.6945 C.2       5 UNK         0.5014 
     38 O          28.8774    0.0888   -7.3813 O.2       5 UNK        -0.5248 
     39 N          27.3206    0.8482   -5.9148 N.am      6 UNK        -0.4434 
     40 CA         27.8360    2.2121   -5.7708 C.3       6 UNK         0.0363 
     41 CB         27.0763    2.9222   -4.6393 C.3       6 UNK        -0.1936 
     42 C          27.7742    3.0455   -7.0650 C.2       6 UNK         0.5081 
     43 O          28.5476    3.9936   -7.1969 O.2       6 UNK        -0.5248 
     44 N          26.8731    2.6847   -7.9881 N.am      7 UNK        -0.4718 
     45 CA         26.7433    3.2999   -9.3084 C.3       7 UNK         0.0273 
     46 CB         25.2590    3.5913   -9.5858 C.3       7 UNK        -0.1935 
     47 C          27.3248    2.3929  -10.4024 C.2       7 UNK         0.5018 
     48 O          27.9952    2.8936  -11.3056 O.2       7 UNK        -0.5186 
     49 N          27.0458    1.0842  -10.3167 N.am      8 UNK        -0.4240 
     50 CA         27.4075    0.0852  -11.3239 C.3       8 UNK         0.0235 
     51 CB         26.5980   -1.1984  -11.0754 C.3       8 UNK        -0.2000 
     52 C          28.9088   -0.2374  -11.3842 C.2       8 UNK         0.4941 
     53 O          29.4010   -0.5546  -12.4683 O.2       8 UNK        -0.5273 
     54 N          29.5988   -0.1775  -10.2382 N.am      9 UNK        -0.4262 
     55 CA         31.0164   -0.5221  -10.1088 C.3       9 UNK         0.0264 
     56 CB         31.1486   -1.8687   -9.3806 C.3       9 UNK        -0.1955 
     57 C          31.8093    0.5764   -9.3916 C.2       9 UNK         0.5031 
     58 O          32.9106    0.9022   -9.8368 O.2       9 UNK        -0.5390 
     59 N          31.2545    1.1210   -8.2986 N.am      10 UNK        -0.4204 
     60 CA         31.7537    2.2154   -7.4506 C.3       10 UNK         0.0237 
     61 CB         31.8810    3.5248   -8.2533 C.3       10 UNK        -0.1985 
     62 C          33.0489    1.9259   -6.6657 C.2       10 UNK         0.4970 
     63 O          33.1702    2.4000   -5.5360 O.2       10 UNK        -0.4914 
     64 N          33.9811    1.1725   -7.2611 N.am      11 UNK        -0.4285 
     65 CA         35.3148    0.8263   -6.7361 C.3       11 UNK         0.1007 
     66 C          36.2964    2.0350   -6.6286 C.2       11 UNK         0.5703 
     67 N          36.0396    3.1574   -7.2909 N.am      11 UNK        -0.7361 
     68 O          37.3267    1.9493   -5.9639 O.2       11 UNK        -0.4986 
     69 C69        35.2705   -0.0290   -5.4352 C.3       12 UNK        -0.0947 
     70 S70        34.3710   -1.6039   -5.6352 S.3       12 UNK        -0.2240 
     71 C71        32.9101   -1.3014   -4.5973 C.3       12 UNK         0.0194 
     72 H72        24.4159   -6.0752   -3.5507 H         1 UNK         0.0906 
     73 H73        26.0488   -5.8711   -4.1767 H         1 UNK         0.0906 
     74 H74        24.8221   -4.6359   -4.4901 H         1 UNK         0.0906 
     75 H75        27.5169   -4.4127   -3.0785 H         1 UNK         0.3140 
     76 H76        26.9834   -3.9727   -0.2780 H         1 UNK         0.1085 
     77 H77        29.3726   -3.0243   -1.9244 H         1 UNK         0.0836 
     78 H78        29.2821   -3.0735   -0.1834 H         1 UNK         0.0836 
     79 H79        31.8631   -4.6571   -1.0453 H         1 UNK         0.0731 
     80 H80        31.6326   -6.1511   -1.9197 H         1 UNK         0.0731 
     81 H81        32.6943   -2.9580   -2.4394 H         1 UNK         0.1312 
     82 H82        31.2179   -2.3850   -6.4100 H         1 UNK         0.1406 
     83 H83        29.7978   -5.6810   -4.0578 H         1 UNK         0.1631 
     84 H84        29.6859   -3.9316   -7.3996 H         1 UNK         0.0717 
     85 H85        29.5620   -5.5289   -6.7080 H         1 UNK         0.0717 
     86 H86        27.1415   -2.2309   -4.7054 H         1 UNK         0.0934 
     87 H87        28.7375   -2.0824   -5.3268 H         1 UNK         0.0934 
     88 H88        27.4477   -1.9098   -7.7153 H         1 UNK         0.0739 
     89 H89        25.2698   -1.9656   -5.9991 H         1 UNK         0.3093 
     90 H90        23.1071    0.5007   -7.2280 H         1 UNK         0.0818 
     91 H91        21.5389   -1.3475   -7.7167 H         1 UNK         0.0819 
     92 H92        22.7827   -1.2924   -8.9525 H         1 UNK         0.0819 
     93 H93        22.8573   -2.5203   -7.6963 H         1 UNK         0.0819 
     94 H94        22.4083   -1.4322   -5.4137 H         1 UNK         0.3041 
     95 H95        22.4672    0.1783   -2.8779 H         1 UNK         0.0784 
     96 H96        21.6501   -2.0153   -3.6855 H         1 UNK         0.0793 
     97 H97        23.2388   -2.7459   -3.4508 H         1 UNK         0.0793 
     98 H98        22.2815   -2.2326   -2.0704 H         1 UNK         0.0793 
     99 H99        25.2496   -0.5875   -2.6034 H         1 UNK         0.3024 
    100 H100       26.2070    0.4726   -0.5690 H         1 UNK         0.1171 
    101 H101       26.3394    0.1645    1.8911 H         1 UNK         0.0786 
    102 H102       24.9150    1.0977    1.4658 H         1 UNK         0.0786 
    103 H103       24.7482   -0.5959    1.9087 H         1 UNK         0.0786 
    104 H104       26.0363   -2.2136    0.5982 H         1 UNK         0.2977 
    105 H105       26.4592    0.6395   -5.4149 H         1 UNK         0.3127 
    106 H106       28.8854    2.1378   -5.4797 H         1 UNK         0.0770 
    107 H107       26.0166    3.0312   -4.8735 H         1 UNK         0.0814 
    108 H108       27.4771    3.9220   -4.4669 H         1 UNK         0.0814 
    109 H109       27.1569    2.3736   -3.7006 H         1 UNK         0.0814 
    110 H110       26.2934    1.8718   -7.8096 H         1 UNK         0.2983 
    111 H111       27.2846    4.2482   -9.3434 H         1 UNK         0.0947 
    112 H112       25.1274    4.0459  -10.5687 H         1 UNK         0.0806 
    113 H113       24.8496    4.2846   -8.8510 H         1 UNK         0.0806 
    114 H114       24.6545    2.6834   -9.5614 H         1 UNK         0.0806 
    115 H115       26.4485    0.7599   -9.5569 H         1 UNK         0.3000 
    116 H116       27.1209    0.4808  -12.3008 H         1 UNK         0.0850 
    117 H117       25.5258   -1.0034  -11.1058 H         1 UNK         0.0810 
    118 H118       26.8291   -1.6400  -10.1056 H         1 UNK         0.0810 
    119 H119       26.8126   -1.9502  -11.8363 H         1 UNK         0.0810 
    120 H120       29.1158    0.0954   -9.3890 H         1 UNK         0.3040 
    121 H121       31.4730   -0.6306  -11.0950 H         1 UNK         0.0766 
    122 H122       30.7774   -2.6858   -9.9992 H         1 UNK         0.0812 
    123 H123       30.5769   -1.8718   -8.4545 H         1 UNK         0.0812 
    124 H124       32.1882   -2.0917   -9.1352 H         1 UNK         0.0812 
    125 H125       30.3739    0.7188   -7.9731 H         1 UNK         0.3205 
    126 H126       30.9765    2.3712   -6.7017 H         1 UNK         0.0754 
    127 H127       32.6482    3.4604   -9.0253 H         1 UNK         0.0769 
    128 H128       32.1452    4.3575   -7.6002 H         1 UNK         0.0769 
    129 H129       30.9389    3.7821   -8.7381 H         1 UNK         0.0769 
    130 H130       33.7935    0.8902   -8.2201 H         1 UNK         0.2981 
    131 H131       35.7602    0.1979   -7.5078 H         1 UNK         0.0541 
    132 H132       35.2111    3.2384   -7.8574 H         1 UNK         0.3459 
    133 H133       36.6857    3.9279   -7.2245 H         1 UNK         0.3459 
    134 H134       34.8477    0.5447   -4.6095 H         1 UNK         0.0612 
    135 H135       36.2818   -0.2939   -5.1224 H         1 UNK         0.0612 
    136 H136       32.3119   -0.5024   -5.0371 H         1 UNK         0.0624 
    137 H137       33.2304   -0.9458   -3.6167 H         1 UNK         0.0624 
@<TRIPOS>BOND
     1    1    2 1    
     2    1   72 1    
     3    1   73 1    
     4    1   74 1    
     5    2    3 2    
     6    2    4 am   BACKBONE|DICT|INTERRES
     7    4    5 1    
     8    4   75 1    
     9    5    6 1    
    10    5   35 1    
    11    5   76 1    
    12    6    7 1    
    13    6   77 1    
    14    6   78 1    
    15    7    8 1    
    16    8    9 1    
    17    8   79 1    
    18    8   80 1    
    19    9   10 ar   
    20    9   14 ar   
    21   10   11 ar   
    22   10   81 1    
    23   11   12 ar   
    24   11   71 1    
    25   12   13 ar   
    26   12   82 1    
    27   13   14 ar   
    28   13   15 1    
    29   14   83 1    
    30   15   16 1    
    31   15   84 1    
    32   15   85 1    
    33   16   17 1    
    34   17   18 1    
    35   17   86 1    
    36   17   87 1    
    37   18   19 1    
    38   18   37 1    
    39   18   88 1    
    40   19   20 am   BACKBONE|DICT|INTERRES
    41   19   89 1    
    42   20   21 2    
    43   20   22 1    
    44   22   23 1    
    45   22   24 1    
    46   22   90 1    
    47   23   91 1    
    48   23   92 1    
    49   23   93 1    
    50   24   25 am   BACKBONE|DICT|INTERRES
    51   24   94 1    
    52   25   26 2    
    53   25   27 1    
    54   27   28 1    
    55   27   29 1    
    56   27   95 1    
    57   28   96 1    
    58   28   97 1    
    59   28   98 1    
    60   29   30 am   BACKBONE|DICT|INTERRES
    61   29   99 1    
    62   30   31 2    
    63   30   32 1    
    64   32   33 1    
    65   32   34 1    
    66   32  100 1    
    67   33  101 1    
    68   33  102 1    
    69   33  103 1    
    70   34   35 am   BACKBONE|DICT|INTERRES
    71   34  104 1    
    72   35   36 2    
    73   37   38 2    
    74   37   39 am   BACKBONE|DICT|INTERRES
    75   39   40 1    
    76   39  105 1    
    77   40   41 1    
    78   40   42 1    
    79   40  106 1    
    80   41  107 1    
    81   41  108 1    
    82   41  109 1    
    83   42   43 2    
    84   42   44 am   BACKBONE|DICT|INTERRES
    85   44   45 1    
    86   44  110 1    
    87   45   46 1    
    88   45   47 1    
    89   45  111 1    
    90   46  112 1    
    91   46  113 1    
    92   46  114 1    
    93   47   48 2    
    94   47   49 am   BACKBONE|DICT|INTERRES
    95   49   50 1    
    96   49  115 1    
    97   50   51 1    
    98   50   52 1    
    99   50  116 1    
   100   51  117 1    
   101   51  118 1    
   102   51  119 1    
   103   52   53 2    
   104   52   54 am   BACKBONE|DICT|INTERRES
   105   54   55 1    
   106   54  120 1    
   107   55   56 1    
   108   55   57 1    
   109   55  121 1    
   110   56  122 1    
   111   56  123 1    
   112   56  124 1    
   113   57   58 2    
   114   57   59 am   BACKBONE|DICT|INTERRES
   115   59   60 1    
   116   59  125 1    
   117   60   61 1    
   118   60   62 1    
   119   60  126 1    
   120   61  127 1    
   121   61  128 1    
   122   61  129 1    
   123   62   63 2    
   124   62   64 am   BACKBONE|DICT|INTERRES
   125   64   65 1    
   126   64  130 1    
   127   65   66 1    
   128   65   69 1    
   129   65  131 1    
   130   66   67 am   BACKBONE|DICT|INTERRES
   131   66   68 2    
   132   67  132 1    
   133   67  133 1    
   134   69   70 1    
   135   69  134 1    
   136   69  135 1    
   137   70   71 1    
   138   71  136 1    
   139   71  137 1    
@<TRIPOS>SUBSTRUCTURE
     1 UNK         1 GROUP             0       ****    0 ROOT    
