@<TRIPOS>MOLECULE
3R137
137   139    1
SMALL
USER_CHARGES


@<TRIPOS>ATOM
      1 CA         22.7601   -6.8181   -4.9303 C.3       0 UNK        -0.2020 
      2 C          23.7761   -6.5932   -3.8204 C.2       0 UNK         0.4855 
      3 O          23.7882   -7.3393   -2.8405 O.2       0 UNK        -0.5197 
      4 N          24.6342   -5.5775   -3.9717 N.am      1 UNK        -0.4892 
      5 CA         25.6366   -5.1701   -2.9816 C.3       1 UNK         0.0835 
      6 C6         26.6543   -4.1724   -3.5846 C.3       12 UNK        -0.0855 
      7 S7         27.6693   -4.9229   -4.9020 S.3       12 UNK        -0.2931 
      8 C8         29.3586   -4.6558   -4.2721 C.3       12 UNK         0.0378 
      9 C9         29.7600   -3.1883   -4.3382 C.ar      12 UNK        -0.0802 
     10 C10        30.1601   -2.6271   -5.5546 C.ar      12 UNK        -0.0944 
     11 C11        30.5285   -1.2810   -5.6289 C.ar      12 UNK        -0.0787 
     12 C12        30.4911   -0.4919   -4.4757 C.ar      12 UNK        -0.0862 
     13 C13        30.0916   -1.0408   -3.2534 C.ar      12 UNK        -0.0733 
     14 C14        29.7357   -2.3912   -3.1888 C.ar      12 UNK        -0.0832 
     15 C15        30.0380   -0.1771   -2.0016 C.3       12 UNK         0.0240 
     16 S16        28.3398    0.3663   -1.6271 S.3       12 UNK        -0.2522 
     17 C17        28.0055    1.5140   -3.0052 C.3       12 UNK        -0.0967 
     18 CA         27.1327    0.8678   -4.1125 C.3       5 UNK         0.0660 
     19 N          25.8091    0.4912   -3.6068 N.am      5 UNK        -0.4015 
     20 C          24.9930   -0.4261   -4.1369 C.2       4 UNK         0.4946 
     21 O          25.2731   -1.0754   -5.1472 O.2       4 UNK        -0.5353 
     22 CA         23.6381   -0.6369   -3.4326 C.3       4 UNK         0.0277 
     23 CB         22.7930   -1.7383   -4.1012 C.3       4 UNK        -0.1981 
     24 N          23.7785   -0.9317   -2.0005 N.am      4 UNK        -0.4209 
     25 C          24.0030   -0.0111   -1.0489 C.2       3 UNK         0.4942 
     26 O          24.1978    1.1788   -1.3045 O.2       3 UNK        -0.5208 
     27 CA         23.9964   -0.4538    0.4267 C.3       3 UNK         0.0250 
     28 CB         22.6986    0.0043    1.1130 C.3       3 UNK        -0.1990 
     29 N          24.1417   -1.8983    0.6092 N.am      3 UNK        -0.4232 
     30 C          25.3089   -2.5532    0.5847 C.2       2 UNK         0.4993 
     31 O          26.4012   -2.0036    0.4434 O.2       2 UNK        -0.5286 
     32 CA         25.2629   -4.0881    0.7078 C.3       2 UNK         0.0209 
     33 CB         23.9303   -4.6475    1.2603 C.3       2 UNK        -0.1931 
     34 N          25.6081   -4.7170   -0.5729 N.am      2 UNK        -0.4546 
     35 C          24.9702   -4.5440   -1.7403 C.2       1 UNK         0.5154 
     36 O          23.9398   -3.8756   -1.8662 O.2       1 UNK        -0.5181 
     37 C          27.0133    1.7685   -5.3618 C.2       5 UNK         0.5014 
     38 O          27.4266    2.9299   -5.3320 O.2       5 UNK        -0.5248 
     39 N          26.4221    1.2265   -6.4329 N.am      6 UNK        -0.4434 
     40 CA         26.3003    1.8668   -7.7419 C.3       6 UNK         0.0363 
     41 CB         25.2778    1.0872   -8.5841 C.3       6 UNK        -0.1936 
     42 C          27.6564    1.9170   -8.4621 C.2       6 UNK         0.5081 
     43 O          28.4757    1.0115   -8.2921 O.2       6 UNK        -0.5248 
     44 N          27.8534    2.9400   -9.3025 N.am      7 UNK        -0.4718 
     45 CA         29.0668    3.1651  -10.0981 C.3       7 UNK         0.0273 
     46 CB         29.1361    4.6527  -10.4912 C.3       7 UNK        -0.1935 
     47 C          29.1713    2.2225  -11.3167 C.2       7 UNK         0.5018 
     48 O          29.3334    2.6829  -12.4482 O.2       7 UNK        -0.5186 
     49 N          29.0724    0.9125  -11.0615 N.am      8 UNK        -0.4240 
     50 CA         29.2247   -0.1627  -12.0457 C.3       8 UNK         0.0235 
     51 CB         28.5828   -1.4411  -11.4816 C.3       8 UNK        -0.2000 
     52 C          30.6938   -0.4227  -12.4295 C.2       8 UNK         0.4941 
     53 O          30.9482   -1.0474  -13.4601 O.2       8 UNK        -0.5273 
     54 N          31.6255    0.0529  -11.5980 N.am      9 UNK        -0.4262 
     55 CA         33.0721   -0.0210  -11.7542 C.3       9 UNK         0.0264 
     56 CB         33.5749   -1.4227  -11.3489 C.3       9 UNK        -0.1955 
     57 C          33.6875    1.1005  -10.9023 C.2       9 UNK         0.5031 
     58 O          32.9504    1.9327  -10.3618 O.2       9 UNK        -0.5390 
     59 N          35.0216    1.0913  -10.7661 N.am      10 UNK        -0.4204 
     60 CA         35.8219    2.0626  -10.0035 C.3       10 UNK         0.0237 
     61 CB         37.3110    1.7065  -10.1484 C.3       10 UNK        -0.1985 
     62 C          35.4478    2.2075   -8.5130 C.2       10 UNK         0.4970 
     63 O          35.7839    3.2266   -7.9085 O.2       10 UNK        -0.4914 
     64 N          34.7483    1.2105   -7.9577 N.am      11 UNK        -0.4285 
     65 CA         34.0831    1.2602   -6.6490 C.3       11 UNK         0.1007 
     66 C          32.9196    2.2913   -6.5366 C.2       11 UNK         0.5703 
     67 N          32.3764    2.8141   -7.6307 N.am      11 UNK        -0.7361 
     68 O          32.5077    2.6259   -5.4287 O.2       11 UNK        -0.4986 
     69 C69        33.6436   -0.1550   -6.1845 C.3       12 UNK        -0.0947 
     70 S70        32.6556   -1.0817   -7.4158 S.3       12 UNK        -0.2240 
     71 C71        30.9394   -0.6747   -6.9618 C.3       12 UNK         0.0194 
     72 H72        22.8696   -6.0934   -5.7370 H         1 UNK         0.0906 
     73 H73        22.8794   -7.8157   -5.3523 H         1 UNK         0.0906 
     74 H74        21.7484   -6.7337   -4.5345 H         1 UNK         0.0906 
     75 H75        24.5805   -4.9962   -4.7956 H         1 UNK         0.3140 
     76 H76        26.1721   -6.0668   -2.6608 H         1 UNK         0.1085 
     77 H77        27.3110   -3.7845   -2.8051 H         1 UNK         0.0836 
     78 H78        26.1428   -3.3028   -3.9993 H         1 UNK         0.0836 
     79 H79        30.0539   -5.2471   -4.8698 H         1 UNK         0.0731 
     80 H80        29.4359   -5.0370   -3.2525 H         1 UNK         0.0731 
     81 H81        30.1794   -3.2380   -6.4470 H         1 UNK         0.1312 
     82 H82        30.7680    0.5523   -4.5327 H         1 UNK         0.1406 
     83 H83        29.4284   -2.8142   -2.2420 H         1 UNK         0.1631 
     84 H84        30.6887    0.6932   -2.1013 H         1 UNK         0.0717 
     85 H85        30.4198   -0.7448   -1.1517 H         1 UNK         0.0717 
     86 H86        27.5130    2.4000   -2.5999 H         1 UNK         0.0934 
     87 H87        28.9559    1.8636   -3.4127 H         1 UNK         0.0934 
     88 H88        27.6361   -0.0442   -4.4407 H         1 UNK         0.0739 
     89 H89        25.4844    0.9782   -2.7769 H         1 UNK         0.3093 
     90 H90        23.0835    0.2983   -3.5364 H         1 UNK         0.0818 
     91 H91        23.3106   -2.6975   -4.1101 H         1 UNK         0.0819 
     92 H92        21.8396   -1.8757   -3.5911 H         1 UNK         0.0819 
     93 H93        22.5712   -1.4826   -5.1381 H         1 UNK         0.0819 
     94 H94        23.7021   -1.9108   -1.7383 H         1 UNK         0.3041 
     95 H95        24.8331    0.0484    0.9176 H         1 UNK         0.0784 
     96 H96        22.5723    1.0848    1.0292 H         1 UNK         0.0793 
     97 H97        21.8188   -0.4618    0.6673 H         1 UNK         0.0793 
     98 H98        22.7052   -0.2369    2.1762 H         1 UNK         0.0793 
     99 H99        23.2919   -2.4369    0.6984 H         1 UNK         0.3024 
    100 H100       26.0493   -4.3566    1.4155 H         1 UNK         0.1171 
    101 H101       23.9984   -5.7242    1.4164 H         1 UNK         0.0786 
    102 H102       23.6874   -4.2021    2.2261 H         1 UNK         0.0786 
    103 H103       23.0878   -4.4704    0.5912 H         1 UNK         0.0786 
    104 H104       26.4649   -5.2534   -0.5700 H         1 UNK         0.2977 
    105 H105       26.0960    0.2676   -6.3504 H         1 UNK         0.3127 
    106 H106       25.9368    2.8864   -7.5963 H         1 UNK         0.0770 
    107 H107       25.5982    0.0585   -8.7555 H         1 UNK         0.0814 
    108 H108       25.1382    1.5518   -9.5612 H         1 UNK         0.0814 
    109 H109       24.3025    1.0578   -8.0977 H         1 UNK         0.0814 
    110 H110       27.1114    3.6151   -9.4229 H         1 UNK         0.2983 
    111 H111       29.9342    2.9527   -9.4686 H         1 UNK         0.0947 
    112 H112       30.0563    4.8705  -11.0352 H         1 UNK         0.0806 
    113 H113       29.1244    5.2970   -9.6119 H         1 UNK         0.0806 
    114 H114       28.3016    4.9410  -11.1316 H         1 UNK         0.0806 
    115 H115       28.9174    0.6428  -10.0924 H         1 UNK         0.3000 
    116 H116       28.6916    0.1204  -12.9559 H         1 UNK         0.0850 
    117 H117       28.6511   -2.2617  -12.1973 H         1 UNK         0.0810 
    118 H118       27.5254   -1.2907  -11.2624 H         1 UNK         0.0810 
    119 H119       29.0730   -1.7668  -10.5631 H         1 UNK         0.0810 
    120 H120       31.3350    0.6254  -10.8149 H         1 UNK         0.3040 
    121 H121       33.3273    0.1743  -12.7976 H         1 UNK         0.0766 
    122 H122       34.6463   -1.5325  -11.5176 H         1 UNK         0.0812 
    123 H123       33.0855   -2.2028  -11.9323 H         1 UNK         0.0812 
    124 H124       33.3830   -1.6309  -10.2963 H         1 UNK         0.0812 
    125 H125       35.5420    0.3686  -11.2425 H         1 UNK         0.3205 
    126 H126       35.6590    3.0399  -10.4623 H         1 UNK         0.0754 
    127 H127       37.9394    2.4266   -9.6219 H         1 UNK         0.0769 
    128 H128       37.6227    1.7142  -11.1932 H         1 UNK         0.0769 
    129 H129       37.5316    0.7204   -9.7375 H         1 UNK         0.0769 
    130 H130       34.5100    0.4150   -8.5299 H         1 UNK         0.2981 
    131 H131       34.8354    1.6042   -5.9368 H         1 UNK         0.0541 
    132 H132       32.6833    2.5276   -8.5559 H         1 UNK         0.3459 
    133 H133       31.6362    3.4884   -7.5316 H         1 UNK         0.3459 
    134 H134       34.5359   -0.7508   -5.9881 H         1 UNK         0.0612 
    135 H135       33.1190   -0.1128   -5.2299 H         1 UNK         0.0612 
    136 H136       30.8036    0.4066   -6.9519 H         1 UNK         0.0624 
    137 H137       30.2785   -1.0496   -7.7446 H         1 UNK         0.0624 
@<TRIPOS>BOND
     1    1    2 1    
     2    1   72 1    
     3    1   73 1    
     4    1   74 1    
     5    2    3 2    
     6    2    4 am   BACKBONE|DICT|INTERRES
     7    4    5 1    
     8    4   75 1    
     9    5    6 1    
    10    5   35 1    
    11    5   76 1    
    12    6    7 1    
    13    6   77 1    
    14    6   78 1    
    15    7    8 1    
    16    8    9 1    
    17    8   79 1    
    18    8   80 1    
    19    9   10 ar   
    20    9   14 ar   
    21   10   11 ar   
    22   10   81 1    
    23   11   12 ar   
    24   11   71 1    
    25   12   13 ar   
    26   12   82 1    
    27   13   14 ar   
    28   13   15 1    
    29   14   83 1    
    30   15   16 1    
    31   15   84 1    
    32   15   85 1    
    33   16   17 1    
    34   17   18 1    
    35   17   86 1    
    36   17   87 1    
    37   18   19 1    
    38   18   37 1    
    39   18   88 1    
    40   19   20 am   BACKBONE|DICT|INTERRES
    41   19   89 1    
    42   20   21 2    
    43   20   22 1    
    44   22   23 1    
    45   22   24 1    
    46   22   90 1    
    47   23   91 1    
    48   23   92 1    
    49   23   93 1    
    50   24   25 am   BACKBONE|DICT|INTERRES
    51   24   94 1    
    52   25   26 2    
    53   25   27 1    
    54   27   28 1    
    55   27   29 1    
    56   27   95 1    
    57   28   96 1    
    58   28   97 1    
    59   28   98 1    
    60   29   30 am   BACKBONE|DICT|INTERRES
    61   29   99 1    
    62   30   31 2    
    63   30   32 1    
    64   32   33 1    
    65   32   34 1    
    66   32  100 1    
    67   33  101 1    
    68   33  102 1    
    69   33  103 1    
    70   34   35 am   BACKBONE|DICT|INTERRES
    71   34  104 1    
    72   35   36 2    
    73   37   38 2    
    74   37   39 am   BACKBONE|DICT|INTERRES
    75   39   40 1    
    76   39  105 1    
    77   40   41 1    
    78   40   42 1    
    79   40  106 1    
    80   41  107 1    
    81   41  108 1    
    82   41  109 1    
    83   42   43 2    
    84   42   44 am   BACKBONE|DICT|INTERRES
    85   44   45 1    
    86   44  110 1    
    87   45   46 1    
    88   45   47 1    
    89   45  111 1    
    90   46  112 1    
    91   46  113 1    
    92   46  114 1    
    93   47   48 2    
    94   47   49 am   BACKBONE|DICT|INTERRES
    95   49   50 1    
    96   49  115 1    
    97   50   51 1    
    98   50   52 1    
    99   50  116 1    
   100   51  117 1    
   101   51  118 1    
   102   51  119 1    
   103   52   53 2    
   104   52   54 am   BACKBONE|DICT|INTERRES
   105   54   55 1    
   106   54  120 1    
   107   55   56 1    
   108   55   57 1    
   109   55  121 1    
   110   56  122 1    
   111   56  123 1    
   112   56  124 1    
   113   57   58 2    
   114   57   59 am   BACKBONE|DICT|INTERRES
   115   59   60 1    
   116   59  125 1    
   117   60   61 1    
   118   60   62 1    
   119   60  126 1    
   120   61  127 1    
   121   61  128 1    
   122   61  129 1    
   123   62   63 2    
   124   62   64 am   BACKBONE|DICT|INTERRES
   125   64   65 1    
   126   64  130 1    
   127   65   66 1    
   128   65   69 1    
   129   65  131 1    
   130   66   67 am   BACKBONE|DICT|INTERRES
   131   66   68 2    
   132   67  132 1    
   133   67  133 1    
   134   69   70 1    
   135   69  134 1    
   136   69  135 1    
   137   70   71 1    
   138   71  136 1    
   139   71  137 1    
@<TRIPOS>SUBSTRUCTURE
     1 UNK         1 GROUP             0       ****    0 ROOT    
