@<TRIPOS>MOLECULE
3R137
137   139    1
SMALL
USER_CHARGES


@<TRIPOS>ATOM
      1 CA         28.9758    1.1216    2.0285 C.3       0 UNK        -0.2020 
      2 C          28.6722   -0.3736    2.0739 C.2       0 UNK         0.4855 
      3 O          28.3494   -0.8911    3.1411 O.2       0 UNK        -0.5197 
      4 N          28.7618   -1.1129    0.9587 N.am      1 UNK        -0.4892 
      5 CA         29.0830   -0.6521   -0.4006 C.3       1 UNK         0.0835 
      6 C6         29.5410   -1.8289   -1.2973 C.3       12 UNK        -0.0855 
      7 S7         28.3189   -3.1832   -1.4300 S.3       12 UNK        -0.2931 
      8 C8         29.3786   -4.5647   -1.9630 C.3       12 UNK         0.0378 
      9 C9         29.6720   -4.5025   -3.4547 C.ar      12 UNK        -0.0802 
     10 C10        30.7940   -3.8186   -3.9326 C.ar      12 UNK        -0.0944 
     11 C11        31.0538   -3.7485   -5.3058 C.ar      12 UNK        -0.0787 
     12 C12        30.1896   -4.3889   -6.2026 C.ar      12 UNK        -0.0862 
     13 C13        29.0820   -5.1039   -5.7329 C.ar      12 UNK        -0.0733 
     14 C14        28.8238   -5.1462   -4.3597 C.ar      12 UNK        -0.0832 
     15 C15        28.1964   -5.8909   -6.6894 C.3       12 UNK         0.0240 
     16 S16        26.5308   -5.1684   -6.8516 S.3       12 UNK        -0.2522 
     17 C17        26.5377   -4.5089   -8.5585 C.3       12 UNK        -0.0967 
     18 CA         26.2990   -2.9830   -8.6499 C.3       5 UNK         0.0660 
     19 N          25.0760   -2.5644   -7.9621 N.am      5 UNK        -0.4015 
     20 C          24.4996   -1.3624   -8.0960 C.2       4 UNK         0.4946 
     21 O          24.8961   -0.4952   -8.8744 O.2       4 UNK        -0.5353 
     22 CA         23.3153   -1.0596   -7.1614 C.3       4 UNK         0.0277 
     23 CB         22.0023   -1.5881   -7.7604 C.3       4 UNK        -0.1981 
     24 N          23.4974   -1.5984   -5.8070 N.am      4 UNK        -0.4209 
     25 C          24.4857   -1.2309   -4.9794 C.2       3 UNK         0.4942 
     26 O          25.3467   -0.4019   -5.2791 O.2       3 UNK        -0.5208 
     27 CA         24.5616   -1.9640   -3.6282 C.3       3 UNK         0.0250 
     28 CB         25.3448   -3.2790   -3.7804 C.3       3 UNK        -0.1990 
     29 N          25.1956   -1.1578   -2.5814 N.am      3 UNK        -0.4232 
     30 C          24.6967   -0.0188   -2.0794 C.2       2 UNK         0.4993 
     31 O          23.6141    0.4575   -2.4262 O.2       2 UNK        -0.5286 
     32 CA         25.5078    0.7017   -0.9846 C.3       2 UNK         0.0209 
     33 CB         24.6420    0.9615    0.2619 C.3       2 UNK        -0.1931 
     34 N          26.7064   -0.0316   -0.5660 N.am      2 UNK        -0.4546 
     35 C          27.9395    0.1560   -1.0557 C.2       1 UNK         0.5154 
     36 O          28.1993    0.9472   -1.9614 O.2       1 UNK        -0.5181 
     37 C          27.5329   -2.1785   -8.1977 C.2       5 UNK         0.5014 
     38 O          28.3787   -1.8644   -9.0341 O.2       5 UNK        -0.5248 
     39 N          27.5987   -1.8249   -6.9060 N.am      6 UNK        -0.4434 
     40 CA         28.6566   -0.9916   -6.3384 C.3       6 UNK         0.0363 
     41 CB         28.6037   -1.0308   -4.8058 C.3       6 UNK        -0.1936 
     42 C          28.5760    0.4521   -6.8436 C.2       6 UNK         0.5081 
     43 O          29.6023    1.0203   -7.2142 O.2       6 UNK        -0.5248 
     44 N          27.3532    0.9981   -6.8968 N.am      7 UNK        -0.4718 
     45 CA         27.0515    2.3108   -7.4694 C.3       7 UNK         0.0273 
     46 CB         25.5805    2.6643   -7.1993 C.3       7 UNK        -0.1935 
     47 C          27.3729    2.3913   -8.9720 C.2       7 UNK         0.5018 
     48 O          27.9160    3.4036   -9.4147 O.2       7 UNK        -0.5186 
     49 N          27.0635    1.3198   -9.7178 N.am      8 UNK        -0.4240 
     50 CA         27.4019    1.1702  -11.1352 C.3       8 UNK         0.0235 
     51 CB         26.6539   -0.0355  -11.7262 C.3       8 UNK        -0.2000 
     52 C          28.9165    1.0469  -11.3776 C.2       8 UNK         0.4941 
     53 O          29.4322    1.6948  -12.2894 O.2       8 UNK        -0.5273 
     54 N          29.6013    0.2296  -10.5635 N.am      9 UNK        -0.4262 
     55 CA         31.0533    0.0322  -10.6156 C.3       9 UNK         0.0264 
     56 CB         31.4359   -1.1917   -9.7650 C.3       9 UNK        -0.1955 
     57 C          31.8569    1.2601  -10.1552 C.2       9 UNK         0.5031 
     58 O          32.9648    1.4679  -10.6521 O.2       9 UNK        -0.5390 
     59 N          31.2999    2.0198   -9.1999 N.am      10 UNK        -0.4204 
     60 CA         31.9145    3.1323   -8.4667 C.3       10 UNK         0.0237 
     61 CB         32.2332    4.3178   -9.4029 C.3       10 UNK        -0.1985 
     62 C          33.1203    2.6697   -7.6242 C.2       10 UNK         0.4970 
     63 O          34.1214    3.3833   -7.5324 O.2       10 UNK        -0.4914 
     64 N          33.0056    1.4683   -7.0432 N.am      11 UNK        -0.4285 
     65 CA         34.0244    0.8391   -6.1943 C.3       11 UNK         0.1007 
     66 C          34.1533    1.4961   -4.7899 C.2       11 UNK         0.5703 
     67 N          35.2542    1.2479   -4.0925 N.am      11 UNK        -0.7361 
     68 O          33.2703    2.2114   -4.3189 O.2       11 UNK        -0.4986 
     69 C69        33.8336   -0.7008   -6.1295 C.3       12 UNK        -0.0947 
     70 S70        32.2176   -1.2297   -5.4711 S.3       12 UNK        -0.2240 
     71 C71        32.2906   -3.0156   -5.8113 C.3       12 UNK         0.0194 
     72 H72        28.2214    1.6566    1.4529 H         1 UNK         0.0906 
     73 H73        28.9773    1.5386    3.0355 H         1 UNK         0.0906 
     74 H74        29.9564    1.3147    1.5955 H         1 UNK         0.0906 
     75 H75        28.5626   -2.1022    1.0228 H         1 UNK         0.3140 
     76 H76        29.9313    0.0315   -0.3312 H         1 UNK         0.1085 
     77 H77        29.7996   -1.4774   -2.2958 H         1 UNK         0.0836 
     78 H78        30.4665   -2.2386   -0.8897 H         1 UNK         0.0836 
     79 H79        28.8726   -5.5020   -1.7265 H         1 UNK         0.0731 
     80 H80        30.3063   -4.5725   -1.3890 H         1 UNK         0.0731 
     81 H81        31.4618   -3.3284   -3.2375 H         1 UNK         0.1312 
     82 H82        30.3929   -4.3520   -7.2642 H         1 UNK         0.1406 
     83 H83        27.9634   -5.6911   -3.9951 H         1 UNK         0.1631 
     84 H84        28.0892   -6.9071   -6.3073 H         1 UNK         0.0717 
     85 H85        28.6760   -5.9955   -7.6629 H         1 UNK         0.0717 
     86 H86        27.4599   -4.7777   -9.0764 H         1 UNK         0.0934 
     87 H87        25.7473   -5.0252   -9.1057 H         1 UNK         0.0934 
     88 H88        26.1561   -2.7493   -9.7072 H         1 UNK         0.0739 
     89 H89        24.6897   -3.2228   -7.3016 H         1 UNK         0.3093 
     90 H90        23.2379    0.0265   -7.0761 H         1 UNK         0.0818 
     91 H91        21.1440   -1.2959   -7.1551 H         1 UNK         0.0819 
     92 H92        21.8416   -1.1849   -8.7614 H         1 UNK         0.0819 
     93 H93        22.0012   -2.6757   -7.8434 H         1 UNK         0.0819 
     94 H94        22.8272   -2.2873   -5.4956 H         1 UNK         0.3041 
     95 H95        23.5455   -2.1944   -3.3011 H         1 UNK         0.0784 
     96 H96        26.3703   -3.1062   -4.1093 H         1 UNK         0.0793 
     97 H97        25.3877   -3.8271   -2.8388 H         1 UNK         0.0793 
     98 H98        24.8736   -3.9371   -4.5111 H         1 UNK         0.0793 
     99 H99        26.0976   -1.4685   -2.2514 H         1 UNK         0.3024 
    100 H100       25.7997    1.6692   -1.4002 H         1 UNK         0.1171 
    101 H101       25.1991    1.5050    1.0253 H         1 UNK         0.0786 
    102 H102       23.7664    1.5639    0.0157 H         1 UNK         0.0786 
    103 H103       24.2838    0.0316    0.7054 H         1 UNK         0.0786 
    104 H104       26.5891   -0.7161    0.1684 H         1 UNK         0.2977 
    105 H105       26.8435   -2.0830   -6.2894 H         1 UNK         0.3127 
    106 H106       29.6099   -1.4102   -6.6625 H         1 UNK         0.0770 
    107 H107       28.6308   -2.0530   -4.4343 H         1 UNK         0.0814 
    108 H108       27.7118   -0.5527   -4.4043 H         1 UNK         0.0814 
    109 H109       29.4600   -0.5034   -4.3855 H         1 UNK         0.0814 
    110 H110       26.5744    0.4700   -6.5104 H         1 UNK         0.2983 
    111 H111       27.6794    3.0441   -6.9586 H         1 UNK         0.0947 
    112 H112       24.9004    1.9619   -7.6817 H         1 UNK         0.0806 
    113 H113       25.3434    3.6600   -7.5763 H         1 UNK         0.0806 
    114 H114       25.3615    2.6594   -6.1313 H         1 UNK         0.0806 
    115 H115       26.5420    0.5623   -9.2859 H         1 UNK         0.3000 
    116 H116       27.0567    2.0674  -11.6536 H         1 UNK         0.0850 
    117 H117       25.5749    0.0736  -11.6140 H         1 UNK         0.0810 
    118 H118       26.9467   -0.9688  -11.2453 H         1 UNK         0.0810 
    119 H119       26.8611   -0.1386  -12.7921 H         1 UNK         0.0810 
    120 H120       29.0915   -0.3346   -9.8864 H         1 UNK         0.3040 
    121 H121       31.3285   -0.1730  -11.6522 H         1 UNK         0.0766 
    122 H122       31.1512   -1.0624   -8.7198 H         1 UNK         0.0812 
    123 H123       32.5123   -1.3672   -9.7904 H         1 UNK         0.0812 
    124 H124       30.9516   -2.0966  -10.1323 H         1 UNK         0.0812 
    125 H125       30.4250    1.6907   -8.7971 H         1 UNK         0.3205 
    126 H126       31.1617    3.4714   -7.7534 H         1 UNK         0.0754 
    127 H127       33.0318    4.0790  -10.1057 H         1 UNK         0.0769 
    128 H128       31.3556    4.6123   -9.9787 H         1 UNK         0.0769 
    129 H129       32.5540    5.1898   -8.8319 H         1 UNK         0.0769 
    130 H130       32.1242    0.9783   -7.1103 H         1 UNK         0.2981 
    131 H131       34.9823    1.0118   -6.6893 H         1 UNK         0.0541 
    132 H132       35.3557    1.6584   -3.1776 H         1 UNK         0.3459 
    133 H133       35.9858    0.6609   -4.4616 H         1 UNK         0.3459 
    134 H134       33.9412   -1.1163   -7.1328 H         1 UNK         0.0612 
    135 H135       34.6211   -1.1629   -5.5319 H         1 UNK         0.0612 
    136 H136       32.4154   -3.1652   -6.8849 H         1 UNK         0.0624 
    137 H137       33.1756   -3.4364   -5.3321 H         1 UNK         0.0624 
@<TRIPOS>BOND
     1    1    2 1    
     2    1   72 1    
     3    1   73 1    
     4    1   74 1    
     5    2    3 2    
     6    2    4 am   BACKBONE|DICT|INTERRES
     7    4    5 1    
     8    4   75 1    
     9    5    6 1    
    10    5   35 1    
    11    5   76 1    
    12    6    7 1    
    13    6   77 1    
    14    6   78 1    
    15    7    8 1    
    16    8    9 1    
    17    8   79 1    
    18    8   80 1    
    19    9   10 ar   
    20    9   14 ar   
    21   10   11 ar   
    22   10   81 1    
    23   11   12 ar   
    24   11   71 1    
    25   12   13 ar   
    26   12   82 1    
    27   13   14 ar   
    28   13   15 1    
    29   14   83 1    
    30   15   16 1    
    31   15   84 1    
    32   15   85 1    
    33   16   17 1    
    34   17   18 1    
    35   17   86 1    
    36   17   87 1    
    37   18   19 1    
    38   18   37 1    
    39   18   88 1    
    40   19   20 am   BACKBONE|DICT|INTERRES
    41   19   89 1    
    42   20   21 2    
    43   20   22 1    
    44   22   23 1    
    45   22   24 1    
    46   22   90 1    
    47   23   91 1    
    48   23   92 1    
    49   23   93 1    
    50   24   25 am   BACKBONE|DICT|INTERRES
    51   24   94 1    
    52   25   26 2    
    53   25   27 1    
    54   27   28 1    
    55   27   29 1    
    56   27   95 1    
    57   28   96 1    
    58   28   97 1    
    59   28   98 1    
    60   29   30 am   BACKBONE|DICT|INTERRES
    61   29   99 1    
    62   30   31 2    
    63   30   32 1    
    64   32   33 1    
    65   32   34 1    
    66   32  100 1    
    67   33  101 1    
    68   33  102 1    
    69   33  103 1    
    70   34   35 am   BACKBONE|DICT|INTERRES
    71   34  104 1    
    72   35   36 2    
    73   37   38 2    
    74   37   39 am   BACKBONE|DICT|INTERRES
    75   39   40 1    
    76   39  105 1    
    77   40   41 1    
    78   40   42 1    
    79   40  106 1    
    80   41  107 1    
    81   41  108 1    
    82   41  109 1    
    83   42   43 2    
    84   42   44 am   BACKBONE|DICT|INTERRES
    85   44   45 1    
    86   44  110 1    
    87   45   46 1    
    88   45   47 1    
    89   45  111 1    
    90   46  112 1    
    91   46  113 1    
    92   46  114 1    
    93   47   48 2    
    94   47   49 am   BACKBONE|DICT|INTERRES
    95   49   50 1    
    96   49  115 1    
    97   50   51 1    
    98   50   52 1    
    99   50  116 1    
   100   51  117 1    
   101   51  118 1    
   102   51  119 1    
   103   52   53 2    
   104   52   54 am   BACKBONE|DICT|INTERRES
   105   54   55 1    
   106   54  120 1    
   107   55   56 1    
   108   55   57 1    
   109   55  121 1    
   110   56  122 1    
   111   56  123 1    
   112   56  124 1    
   113   57   58 2    
   114   57   59 am   BACKBONE|DICT|INTERRES
   115   59   60 1    
   116   59  125 1    
   117   60   61 1    
   118   60   62 1    
   119   60  126 1    
   120   61  127 1    
   121   61  128 1    
   122   61  129 1    
   123   62   63 2    
   124   62   64 am   BACKBONE|DICT|INTERRES
   125   64   65 1    
   126   64  130 1    
   127   65   66 1    
   128   65   69 1    
   129   65  131 1    
   130   66   67 am   BACKBONE|DICT|INTERRES
   131   66   68 2    
   132   67  132 1    
   133   67  133 1    
   134   69   70 1    
   135   69  134 1    
   136   69  135 1    
   137   70   71 1    
   138   71  136 1    
   139   71  137 1    
@<TRIPOS>SUBSTRUCTURE
     1 UNK         1 GROUP             0       ****    0 ROOT    
