@<TRIPOS>MOLECULE
3R137
137   139    1
SMALL
USER_CHARGES


@<TRIPOS>ATOM
      1 CA         29.6036   -5.8994   -4.3094 C.3       0 UNK        -0.2020 
      2 C          28.4667   -5.2743   -3.5162 C.2       0 UNK         0.4855 
      3 O          27.3350   -5.2082   -3.9999 O.2       0 UNK        -0.5197 
      4 N          28.7687   -4.8136   -2.2966 N.am      1 UNK        -0.4892 
      5 CA         27.8272   -4.1843   -1.3659 C.3       1 UNK         0.0835 
      6 C6         28.4140   -3.9976    0.0636 C.3       12 UNK        -0.0855 
      7 S7         30.2029   -3.6326    0.1740 S.3       12 UNK        -0.2931 
      8 C8         30.2625   -1.8049    0.2013 C.3       12 UNK         0.0378 
      9 C9         30.5914   -1.1467   -1.1407 C.ar      12 UNK        -0.0802 
     10 C10        31.2797   -1.8231   -2.1569 C.ar      12 UNK        -0.0944 
     11 C11        31.6012   -1.1934   -3.3618 C.ar      12 UNK        -0.0787 
     12 C12        31.2178    0.1423   -3.5468 C.ar      12 UNK        -0.0862 
     13 C13        30.5445    0.8424   -2.5405 C.ar      12 UNK        -0.0733 
     14 C14        30.2431    0.1932   -1.3388 C.ar      12 UNK        -0.0832 
     15 C15        30.1874    2.3125   -2.7507 C.3       12 UNK         0.0240 
     16 S16        28.4368    2.7327   -2.4245 S.3       12 UNK        -0.2522 
     17 C17        27.5054    1.3654   -3.1891 C.3       12 UNK        -0.0967 
     18 CA         27.7117    1.2289   -4.7191 C.3       5 UNK         0.0660 
     19 N          27.7118   -0.1751   -5.1279 N.am      5 UNK        -0.4015 
     20 C          28.0061   -0.6317   -6.3518 C.2       4 UNK         0.4946 
     21 O          28.3684    0.0743   -7.2943 O.2       4 UNK        -0.5353 
     22 CA         27.8635   -2.1443   -6.5591 C.3       4 UNK         0.0277 
     23 CB         29.1286   -2.8528   -6.0634 C.3       4 UNK        -0.1981 
     24 N          26.6835   -2.6936   -5.8855 N.am      4 UNK        -0.4209 
     25 C          25.4213   -2.4011   -6.2346 C.2       3 UNK         0.4942 
     26 O          25.1215   -1.7145   -7.2114 O.2       3 UNK        -0.5208 
     27 CA         24.3079   -2.9178   -5.3090 C.3       3 UNK         0.0250 
     28 CB         24.0257   -4.4066   -5.5658 C.3       3 UNK        -0.1990 
     29 N          24.6102   -2.7057   -3.8906 N.am      3 UNK        -0.4232 
     30 C          24.7470   -1.5021   -3.3132 C.2       2 UNK         0.4993 
     31 O          24.6005   -0.4379   -3.9095 O.2       2 UNK        -0.5286 
     32 CA         25.1515   -1.4644   -1.8304 C.3       2 UNK         0.0209 
     33 CB         23.9046   -1.3833   -0.9359 C.3       2 UNK        -0.1931 
     34 N          25.9771   -2.6006   -1.4168 N.am      2 UNK        -0.4546 
     35 C          27.1873   -2.8915   -1.9152 C.2       1 UNK         0.5154 
     36 O          27.7534   -2.2082   -2.7738 O.2       1 UNK        -0.5181 
     37 C          26.7004    2.0656   -5.5282 C.2       5 UNK         0.5014 
     38 O          27.0840    3.0815   -6.1104 O.2       5 UNK        -0.5248 
     39 N          25.4488    1.5868   -5.6042 N.am      6 UNK        -0.4434 
     40 CA         24.3441    2.1784   -6.3675 C.3       6 UNK         0.0363 
     41 CB         23.0493    1.4066   -6.0687 C.3       6 UNK        -0.1936 
     42 C          24.5889    2.2362   -7.8851 C.2       6 UNK         0.5081 
     43 O          24.0399    3.1150   -8.5489 O.2       6 UNK        -0.5248 
     44 N          25.4447    1.3457   -8.4030 N.am      7 UNK        -0.4718 
     45 CA         25.9395    1.3419   -9.7827 C.3       7 UNK         0.0273 
     46 CB         26.2999   -0.1029  -10.1720 C.3       7 UNK        -0.1935 
     47 C          27.1163    2.3201  -10.0061 C.2       7 UNK         0.5018 
     48 O          27.8796    2.1353  -10.9544 O.2       7 UNK        -0.5186 
     49 N          27.2402    3.3374   -9.1387 N.am      8 UNK        -0.4240 
     50 CA         28.2701    4.3807   -9.0956 C.3       8 UNK         0.0235 
     51 CB         28.2413    5.2533  -10.3695 C.3       8 UNK        -0.2000 
     52 C          29.6617    3.8097   -8.7724 C.2       8 UNK         0.4941 
     53 O          30.6443    4.1889   -9.4125 O.2       8 UNK        -0.5273 
     54 N          29.7041    2.9101   -7.7765 N.am      9 UNK        -0.4262 
     55 CA         30.8740    2.1596   -7.3034 C.3       9 UNK         0.0264 
     56 CB         31.8805    3.0947   -6.6004 C.3       9 UNK        -0.1955 
     57 C          31.5071    1.3185   -8.4278 C.2       9 UNK         0.5031 
     58 O          32.6850    1.4954   -8.7472 O.2       9 UNK        -0.5390 
     59 N          30.6920    0.4375   -9.0255 N.am      10 UNK        -0.4204 
     60 CA         31.0951   -0.4610  -10.1123 C.3       10 UNK         0.0237 
     61 CB         29.8526   -1.1103  -10.7447 C.3       10 UNK        -0.1985 
     62 C          32.1010   -1.5196   -9.6328 C.2       10 UNK         0.4970 
     63 O          33.2029   -1.6068  -10.1753 O.2       10 UNK        -0.4914 
     64 N          31.6964   -2.2695   -8.5995 N.am      11 UNK        -0.4285 
     65 CA         32.5222   -3.1998   -7.8073 C.3       11 UNK         0.1007 
     66 C          33.1228   -4.4056   -8.5930 C.2       11 UNK         0.5703 
     67 N          32.5792   -4.7731   -9.7472 N.am      11 UNK        -0.7361 
     68 O          34.0695   -5.0430   -8.1372 O.2       11 UNK        -0.4986 
     69 C69        33.5697   -2.4585   -6.9248 C.3       12 UNK        -0.0947 
     70 S70        32.8409   -1.1129   -5.9261 S.3       12 UNK        -0.2240 
     71 C71        32.3717   -2.0069   -4.4070 C.3       12 UNK         0.0194 
     72 H72        30.4511   -5.2173   -4.3742 H         1 UNK         0.0906 
     73 H73        29.9358   -6.8219   -3.8341 H         1 UNK         0.0906 
     74 H74        29.2815   -6.1392   -5.3225 H         1 UNK         0.0906 
     75 H75        29.7215   -4.8544   -1.9629 H         1 UNK         0.3140 
     76 H76        27.0025   -4.8955   -1.2748 H         1 UNK         0.1085 
     77 H77        28.2752   -4.9338    0.6068 H         1 UNK         0.0836 
     78 H78        27.8526   -3.2636    0.6452 H         1 UNK         0.0836 
     79 H79        31.0297   -1.5048    0.9160 H         1 UNK         0.0731 
     80 H80        29.3190   -1.4162    0.5871 H         1 UNK         0.0731 
     81 H81        31.5865   -2.8489   -2.0143 H         1 UNK         0.1312 
     82 H82        31.4569    0.6565   -4.4649 H         1 UNK         0.1406 
     83 H83        29.7333    0.7379   -0.5555 H         1 UNK         0.1631 
     84 H84        30.4302    2.6257   -3.7664 H         1 UNK         0.0717 
     85 H85        30.8144    2.9186   -2.0956 H         1 UNK         0.0717 
     86 H86        27.8124    0.4525   -2.6786 H         1 UNK         0.0934 
     87 H87        26.4503    1.4833   -2.9344 H         1 UNK         0.0934 
     88 H88        28.7025    1.6029   -4.9756 H         1 UNK         0.0739 
     89 H89        27.4938   -0.8554   -4.4079 H         1 UNK         0.3093 
     90 H90        27.7617   -2.3226   -7.6317 H         1 UNK         0.0818 
     91 H91        29.2021   -2.8321   -4.9758 H         1 UNK         0.0819 
     92 H92        29.1562   -3.8905   -6.3934 H         1 UNK         0.0819 
     93 H93        30.0201   -2.3588   -6.4427 H         1 UNK         0.0819 
     94 H94        26.8443   -3.2830   -5.0761 H         1 UNK         0.3041 
     95 H95        23.4010   -2.3552   -5.5413 H         1 UNK         0.0784 
     96 H96        23.7855   -4.5818   -6.6155 H         1 UNK         0.0793 
     97 H97        24.8850   -5.0317   -5.3194 H         1 UNK         0.0793 
     98 H98        23.1769   -4.7564   -4.9780 H         1 UNK         0.0793 
     99 H99        24.7686   -3.5295   -3.3289 H         1 UNK         0.3024 
    100 H100       25.7392   -0.5575   -1.6767 H         1 UNK         0.1171 
    101 H101       24.1750   -1.2607    0.1131 H         1 UNK         0.0786 
    102 H102       23.2841   -0.5284   -1.2096 H         1 UNK         0.0786 
    103 H103       23.2845   -2.2765   -1.0224 H         1 UNK         0.0786 
    104 H104       25.5799   -3.2075   -0.7134 H         1 UNK         0.2977 
    105 H105       25.2121    0.7548   -5.0614 H         1 UNK         0.3127 
    106 H106       24.2200    3.2058   -6.0195 H         1 UNK         0.0770 
    107 H107       23.1329    0.3578   -6.3575 H         1 UNK         0.0814 
    108 H108       22.2041    1.8307   -6.6124 H         1 UNK         0.0814 
    109 H109       22.8022    1.4422   -5.0075 H         1 UNK         0.0814 
    110 H110       25.8431    0.6508   -7.7843 H         1 UNK         0.2983 
    111 H111       25.1346    1.6708  -10.4434 H         1 UNK         0.0947 
    112 H112       26.5998   -0.1690  -11.2185 H         1 UNK         0.0806 
    113 H113       25.4499   -0.7723  -10.0381 H         1 UNK         0.0806 
    114 H114       27.1217   -0.4871   -9.5691 H         1 UNK         0.0806 
    115 H115       26.5861    3.3581   -8.3669 H         1 UNK         0.3000 
    116 H116       28.0090    5.0249   -8.2544 H         1 UNK         0.0850 
    117 H117       28.9139    6.1063  -10.2716 H         1 UNK         0.0810 
    118 H118       27.2431    5.6484  -10.5577 H         1 UNK         0.0810 
    119 H119       28.5544    4.6956  -11.2526 H         1 UNK         0.0810 
    120 H120       28.8231    2.6746   -7.3322 H         1 UNK         0.3040 
    121 H121       30.5142    1.4519   -6.5570 H         1 UNK         0.0766 
    122 H122       31.4063    3.6590   -5.7980 H         1 UNK         0.0812 
    123 H123       32.3235    3.8097   -7.2943 H         1 UNK         0.0812 
    124 H124       32.6973    2.5221   -6.1591 H         1 UNK         0.0812 
    125 H125       29.7445    0.3529   -8.6652 H         1 UNK         0.3205 
    126 H126       31.5870    0.1411  -10.8793 H         1 UNK         0.0754 
    127 H127       30.1344   -1.7976  -11.5435 H         1 UNK         0.0769 
    128 H128       29.2012   -0.3559  -11.1862 H         1 UNK         0.0769 
    129 H129       29.2667   -1.6739  -10.0180 H         1 UNK         0.0769 
    130 H130       30.7630   -2.1182   -8.2529 H         1 UNK         0.2981 
    131 H131       31.8266   -3.6791   -7.1193 H         1 UNK         0.0541 
    132 H132       31.8017   -4.2619  -10.1319 H         1 UNK         0.3459 
    133 H133       32.9641   -5.5600  -10.2454 H         1 UNK         0.3459 
    134 H134       34.0751   -3.1544   -6.2530 H         1 UNK         0.0612 
    135 H135       34.3487   -2.0241   -7.5533 H         1 UNK         0.0612 
    136 H136       31.7720   -2.8743   -4.6834 H         1 UNK         0.0624 
    137 H137       33.2825   -2.3930   -3.9470 H         1 UNK         0.0624 
@<TRIPOS>BOND
     1    1    2 1    
     2    1   72 1    
     3    1   73 1    
     4    1   74 1    
     5    2    3 2    
     6    2    4 am   BACKBONE|DICT|INTERRES
     7    4    5 1    
     8    4   75 1    
     9    5    6 1    
    10    5   35 1    
    11    5   76 1    
    12    6    7 1    
    13    6   77 1    
    14    6   78 1    
    15    7    8 1    
    16    8    9 1    
    17    8   79 1    
    18    8   80 1    
    19    9   10 ar   
    20    9   14 ar   
    21   10   11 ar   
    22   10   81 1    
    23   11   12 ar   
    24   11   71 1    
    25   12   13 ar   
    26   12   82 1    
    27   13   14 ar   
    28   13   15 1    
    29   14   83 1    
    30   15   16 1    
    31   15   84 1    
    32   15   85 1    
    33   16   17 1    
    34   17   18 1    
    35   17   86 1    
    36   17   87 1    
    37   18   19 1    
    38   18   37 1    
    39   18   88 1    
    40   19   20 am   BACKBONE|DICT|INTERRES
    41   19   89 1    
    42   20   21 2    
    43   20   22 1    
    44   22   23 1    
    45   22   24 1    
    46   22   90 1    
    47   23   91 1    
    48   23   92 1    
    49   23   93 1    
    50   24   25 am   BACKBONE|DICT|INTERRES
    51   24   94 1    
    52   25   26 2    
    53   25   27 1    
    54   27   28 1    
    55   27   29 1    
    56   27   95 1    
    57   28   96 1    
    58   28   97 1    
    59   28   98 1    
    60   29   30 am   BACKBONE|DICT|INTERRES
    61   29   99 1    
    62   30   31 2    
    63   30   32 1    
    64   32   33 1    
    65   32   34 1    
    66   32  100 1    
    67   33  101 1    
    68   33  102 1    
    69   33  103 1    
    70   34   35 am   BACKBONE|DICT|INTERRES
    71   34  104 1    
    72   35   36 2    
    73   37   38 2    
    74   37   39 am   BACKBONE|DICT|INTERRES
    75   39   40 1    
    76   39  105 1    
    77   40   41 1    
    78   40   42 1    
    79   40  106 1    
    80   41  107 1    
    81   41  108 1    
    82   41  109 1    
    83   42   43 2    
    84   42   44 am   BACKBONE|DICT|INTERRES
    85   44   45 1    
    86   44  110 1    
    87   45   46 1    
    88   45   47 1    
    89   45  111 1    
    90   46  112 1    
    91   46  113 1    
    92   46  114 1    
    93   47   48 2    
    94   47   49 am   BACKBONE|DICT|INTERRES
    95   49   50 1    
    96   49  115 1    
    97   50   51 1    
    98   50   52 1    
    99   50  116 1    
   100   51  117 1    
   101   51  118 1    
   102   51  119 1    
   103   52   53 2    
   104   52   54 am   BACKBONE|DICT|INTERRES
   105   54   55 1    
   106   54  120 1    
   107   55   56 1    
   108   55   57 1    
   109   55  121 1    
   110   56  122 1    
   111   56  123 1    
   112   56  124 1    
   113   57   58 2    
   114   57   59 am   BACKBONE|DICT|INTERRES
   115   59   60 1    
   116   59  125 1    
   117   60   61 1    
   118   60   62 1    
   119   60  126 1    
   120   61  127 1    
   121   61  128 1    
   122   61  129 1    
   123   62   63 2    
   124   62   64 am   BACKBONE|DICT|INTERRES
   125   64   65 1    
   126   64  130 1    
   127   65   66 1    
   128   65   69 1    
   129   65  131 1    
   130   66   67 am   BACKBONE|DICT|INTERRES
   131   66   68 2    
   132   67  132 1    
   133   67  133 1    
   134   69   70 1    
   135   69  134 1    
   136   69  135 1    
   137   70   71 1    
   138   71  136 1    
   139   71  137 1    
@<TRIPOS>SUBSTRUCTURE
     1 UNK         1 GROUP             0       ****    0 ROOT    
