@<TRIPOS>MOLECULE
3R137
137   139    1
SMALL
USER_CHARGES


@<TRIPOS>ATOM
      1 CA         27.9426   -7.0550   -5.7514 C.3       0 UNK        -0.2020 
      2 C          28.6154   -5.7974   -5.2091 C.2       0 UNK         0.4855 
      3 O          29.5794   -5.3240   -5.8045 O.2       0 UNK        -0.5197 
      4 N          28.1589   -5.2204   -4.0887 N.am      1 UNK        -0.4892 
      5 CA         26.9940   -5.6150   -3.2854 C.3       1 UNK         0.0835 
      6 C6         27.0535   -4.9971   -1.8624 C.3       12 UNK        -0.0855 
      7 S7         27.3190   -3.1815   -1.8432 S.3       12 UNK        -0.2931 
      8 C8         29.0144   -3.0434   -1.1813 C.3       12 UNK         0.0378 
      9 C9         29.8703   -2.1241   -2.0393 C.ar      12 UNK        -0.0802 
     10 C10        30.5177   -2.6270   -3.1703 C.ar      12 UNK        -0.0944 
     11 C11        31.2981   -1.7936   -3.9749 C.ar      12 UNK        -0.0787 
     12 C12        31.4443   -0.4448   -3.6324 C.ar      12 UNK        -0.0862 
     13 C13        30.8337    0.0630   -2.4799 C.ar      12 UNK        -0.0733 
     14 C14        30.0378   -0.7793   -1.6950 C.ar      12 UNK        -0.0832 
     15 C15        31.0779    1.5019   -2.0422 C.3       12 UNK         0.0240 
     16 S16        29.5737    2.5257   -2.1150 S.3       12 UNK        -0.2522 
     17 C17        29.4962    2.9739   -3.8812 C.3       12 UNK        -0.0967 
     18 CA         28.4801    2.1160   -4.6698 C.3       5 UNK         0.0660 
     19 N          27.1352    2.1337   -4.0838 N.am      5 UNK        -0.4015 
     20 C          26.1461    1.3152   -4.4598 C.2       4 UNK         0.4946 
     21 O          26.2404    0.4941   -5.3766 O.2       4 UNK        -0.5353 
     22 CA         24.8215    1.4408   -3.7089 C.3       4 UNK         0.0277 
     23 CB         23.7880    2.2300   -4.5321 C.3       4 UNK        -0.1981 
     24 N          24.3545    0.0845   -3.4667 N.am      4 UNK        -0.4209 
     25 C          23.5375   -0.3102   -2.4857 C.2       3 UNK         0.4942 
     26 O          22.9874    0.4695   -1.7061 O.2       3 UNK        -0.5208 
     27 CA         23.3375   -1.8276   -2.3002 C.3       3 UNK         0.0250 
     28 CB         21.8572   -2.2055   -2.0787 C.3       3 UNK        -0.1990 
     29 N          23.9655   -2.6517   -3.3442 N.am      3 UNK        -0.4232 
     30 C          23.5866   -2.8213   -4.6217 C.2       2 UNK         0.4993 
     31 O          22.5940   -2.2896   -5.1186 O.2       2 UNK        -0.5286 
     32 CA         24.4826   -3.7064   -5.5149 C.3       2 UNK         0.0209 
     33 CB         24.9593   -2.9273   -6.7518 C.3       2 UNK        -0.1931 
     34 N          25.6599   -4.2405   -4.8223 N.am      2 UNK        -0.4546 
     35 C          25.6556   -5.2786   -3.9748 C.2       1 UNK         0.5154 
     36 O          24.6541   -5.9467   -3.7197 O.2       1 UNK        -0.5181 
     37 C          28.4715    2.5229   -6.1547 C.2       5 UNK         0.5014 
     38 O          29.2373    1.9586   -6.9322 O.2       5 UNK        -0.5248 
     39 N          27.5910    3.4618   -6.5338 N.am      6 UNK        -0.4434 
     40 CA         27.3928    3.8983   -7.9191 C.3       6 UNK         0.0363 
     41 CB         26.4668    5.1245   -7.9483 C.3       6 UNK        -0.1936 
     42 C          26.8424    2.7806   -8.8211 C.2       6 UNK         0.5081 
     43 O          27.3009    2.6355   -9.9542 O.2       6 UNK        -0.5248 
     44 N          25.9070    1.9802   -8.2886 N.am      7 UNK        -0.4718 
     45 CA         25.3582    0.7949   -8.9555 C.3       7 UNK         0.0273 
     46 CB         24.0938    0.3268   -8.2180 C.3       7 UNK        -0.1935 
     47 C          26.3899   -0.3416   -9.0662 C.2       7 UNK         0.5018 
     48 O          26.3753   -1.0805  -10.0501 O.2       7 UNK        -0.5186 
     49 N          27.2970   -0.4215   -8.0836 N.am      8 UNK        -0.4240 
     50 CA         28.4526   -1.3201   -8.0569 C.3       8 UNK         0.0235 
     51 CB         28.7780   -1.6517   -6.5911 C.3       8 UNK        -0.2000 
     52 C          29.6848   -0.7543   -8.8021 C.2       8 UNK         0.4941 
     53 O          30.7882   -1.2710   -8.6141 O.2       8 UNK        -0.5273 
     54 N          29.4957    0.2977   -9.6176 N.am      9 UNK        -0.4262 
     55 CA         30.4850    0.9571  -10.4828 C.3       9 UNK         0.0264 
     56 CB         30.8762    0.0267  -11.6503 C.3       9 UNK        -0.1955 
     57 C          31.7127    1.5091   -9.7296 C.2       9 UNK         0.5031 
     58 O          32.8286    1.4655  -10.2535 O.2       9 UNK        -0.5390 
     59 N          31.4919    1.9850   -8.4951 N.am      10 UNK        -0.4204 
     60 CA         32.4782    2.5007   -7.5376 C.3       10 UNK         0.0237 
     61 CB         33.0987    3.8178   -8.0493 C.3       10 UNK        -0.1985 
     62 C          33.5456    1.4697   -7.1176 C.2       10 UNK         0.4970 
     63 O          34.5819    1.8640   -6.5806 O.2       10 UNK        -0.4914 
     64 N          33.2813    0.1771   -7.3605 N.am      11 UNK        -0.4285 
     65 CA         34.2056   -0.9465   -7.1490 C.3       11 UNK         0.1007 
     66 C          35.4673   -0.9240   -8.0675 C.2       11 UNK         0.5703 
     67 N          35.4602   -0.1887   -9.1751 N.am      11 UNK        -0.7361 
     68 O          36.4519   -1.6098   -7.8019 O.2       11 UNK        -0.4986 
     69 C69        34.4983   -1.1934   -5.6309 C.3       12 UNK        -0.0947 
     70 S70        33.7222   -2.7199   -5.0056 S.3       12 UNK        -0.2240 
     71 C71        31.9502   -2.3600   -5.2271 C.3       12 UNK         0.0194 
     72 H72        27.8875   -7.8339   -4.9919 H         1 UNK         0.0906 
     73 H73        26.9377   -6.8363   -6.1104 H         1 UNK         0.0906 
     74 H74        28.5115   -7.4568   -6.5898 H         1 UNK         0.0906 
     75 H75        28.6175   -4.3836   -3.7588 H         1 UNK         0.3140 
     76 H76        27.0128   -6.6996   -3.1625 H         1 UNK         0.1085 
     77 H77        27.8406   -5.4912   -1.2920 H         1 UNK         0.0836 
     78 H78        26.1371   -5.2147   -1.3092 H         1 UNK         0.0836 
     79 H79        29.4954   -4.0203   -1.1223 H         1 UNK         0.0731 
     80 H80        28.9642   -2.6718   -0.1567 H         1 UNK         0.0731 
     81 H81        30.4148   -3.6708   -3.4303 H         1 UNK         0.1312 
     82 H82        32.0491    0.2023   -4.2516 H         1 UNK         0.1406 
     83 H83        29.5577   -0.3869   -0.8085 H         1 UNK         0.1631 
     84 H84        31.8721    1.9652   -2.6296 H         1 UNK         0.0717 
     85 H85        31.4364    1.4933   -1.0119 H         1 UNK         0.0717 
     86 H86        29.2348    4.0322   -3.9433 H         1 UNK         0.0934 
     87 H87        30.4923    2.8861   -4.3196 H         1 UNK         0.0934 
     88 H88        28.8269    1.0810   -4.6299 H         1 UNK         0.0739 
     89 H89        26.9934    2.7664   -3.3095 H         1 UNK         0.3093 
     90 H90        24.9923    1.9407   -2.7529 H         1 UNK         0.0818 
     91 H91        24.1432    3.2386   -4.7462 H         1 UNK         0.0819 
     92 H92        23.5767    1.7453   -5.4857 H         1 UNK         0.0819 
     93 H93        22.8451    2.3270   -3.9937 H         1 UNK         0.0819 
     94 H94        24.7842   -0.6106   -4.0635 H         1 UNK         0.3041 
     95 H95        23.8714   -2.0771   -1.3820 H         1 UNK         0.0784 
     96 H96        21.4606   -1.7200   -1.1862 H         1 UNK         0.0793 
     97 H97        21.2285   -1.8999   -2.9153 H         1 UNK         0.0793 
     98 H98        21.7374   -3.2802   -1.9415 H         1 UNK         0.0793 
     99 H99        24.8165   -3.1170   -3.0593 H         1 UNK         0.3024 
    100 H100       23.8678   -4.5440   -5.8526 H         1 UNK         0.1171 
    101 H101       25.5092   -2.0293   -6.4702 H         1 UNK         0.0786 
    102 H102       25.6063   -3.5337   -7.3861 H         1 UNK         0.0786 
    103 H103       24.1135   -2.6134   -7.3642 H         1 UNK         0.0786 
    104 H104       26.5332   -3.7535   -4.9651 H         1 UNK         0.2977 
    105 H105       27.0016    3.8837   -5.8312 H         1 UNK         0.3127 
    106 H106       28.3652    4.1951   -8.3185 H         1 UNK         0.0770 
    107 H107       25.4817    4.9006   -7.5370 H         1 UNK         0.0814 
    108 H108       26.3201    5.4765   -8.9705 H         1 UNK         0.0814 
    109 H109       26.8883    5.9540   -7.3803 H         1 UNK         0.0814 
    110 H110       25.6166    2.1407   -7.3351 H         1 UNK         0.2983 
    111 H111       25.0735    1.0784   -9.9714 H         1 UNK         0.0947 
    112 H112       23.6494   -0.5347   -8.7179 H         1 UNK         0.0806 
    113 H113       23.3362    1.1101   -8.1929 H         1 UNK         0.0806 
    114 H114       24.3060    0.0334   -7.1898 H         1 UNK         0.0806 
    115 H115       27.1948    0.2011   -7.2898 H         1 UNK         0.3000 
    116 H116       28.1786   -2.2520   -8.5557 H         1 UNK         0.0850 
    117 H117       29.2469   -0.8098   -6.0814 H         1 UNK         0.0810 
    118 H118       29.4619   -2.4975   -6.5365 H         1 UNK         0.0810 
    119 H119       27.8874   -1.9274   -6.0277 H         1 UNK         0.0810 
    120 H120       28.5653    0.6940   -9.6572 H         1 UNK         0.3040 
    121 H121       29.9807    1.8263  -10.9078 H         1 UNK         0.0766 
    122 H122       31.4304   -0.8455  -11.3015 H         1 UNK         0.0812 
    123 H123       29.9965   -0.3272  -12.1877 H         1 UNK         0.0812 
    124 H124       31.5076    0.5461  -12.3724 H         1 UNK         0.0812 
    125 H125       30.5438    1.9232   -8.1186 H         1 UNK         0.3205 
    126 H126       31.9190    2.7320   -6.6302 H         1 UNK         0.0754 
    127 H127       33.7179    4.2851   -7.2826 H         1 UNK         0.0769 
    128 H128       32.3279    4.5382   -8.3230 H         1 UNK         0.0769 
    129 H129       33.7313    3.6547   -8.9224 H         1 UNK         0.0769 
    130 H130       32.4121   -0.0643   -7.8233 H         1 UNK         0.2981 
    131 H131       33.6611   -1.8074   -7.5377 H         1 UNK         0.0541 
    132 H132       36.2718   -0.1890   -9.7720 H         1 UNK         0.3459 
    133 H133       34.6471    0.3587   -9.4268 H         1 UNK         0.3459 
    134 H134       34.1601   -0.3642   -5.0100 H         1 UNK         0.0612 
    135 H135       35.5672   -1.2690   -5.4272 H         1 UNK         0.0612 
    136 H136       31.7879   -1.6775   -6.0591 H         1 UNK         0.0624 
    137 H137       31.4607   -3.2917   -5.5133 H         1 UNK         0.0624 
@<TRIPOS>BOND
     1    1    2 1    
     2    1   72 1    
     3    1   73 1    
     4    1   74 1    
     5    2    3 2    
     6    2    4 am   BACKBONE|DICT|INTERRES
     7    4    5 1    
     8    4   75 1    
     9    5    6 1    
    10    5   35 1    
    11    5   76 1    
    12    6    7 1    
    13    6   77 1    
    14    6   78 1    
    15    7    8 1    
    16    8    9 1    
    17    8   79 1    
    18    8   80 1    
    19    9   10 ar   
    20    9   14 ar   
    21   10   11 ar   
    22   10   81 1    
    23   11   12 ar   
    24   11   71 1    
    25   12   13 ar   
    26   12   82 1    
    27   13   14 ar   
    28   13   15 1    
    29   14   83 1    
    30   15   16 1    
    31   15   84 1    
    32   15   85 1    
    33   16   17 1    
    34   17   18 1    
    35   17   86 1    
    36   17   87 1    
    37   18   19 1    
    38   18   37 1    
    39   18   88 1    
    40   19   20 am   BACKBONE|DICT|INTERRES
    41   19   89 1    
    42   20   21 2    
    43   20   22 1    
    44   22   23 1    
    45   22   24 1    
    46   22   90 1    
    47   23   91 1    
    48   23   92 1    
    49   23   93 1    
    50   24   25 am   BACKBONE|DICT|INTERRES
    51   24   94 1    
    52   25   26 2    
    53   25   27 1    
    54   27   28 1    
    55   27   29 1    
    56   27   95 1    
    57   28   96 1    
    58   28   97 1    
    59   28   98 1    
    60   29   30 am   BACKBONE|DICT|INTERRES
    61   29   99 1    
    62   30   31 2    
    63   30   32 1    
    64   32   33 1    
    65   32   34 1    
    66   32  100 1    
    67   33  101 1    
    68   33  102 1    
    69   33  103 1    
    70   34   35 am   BACKBONE|DICT|INTERRES
    71   34  104 1    
    72   35   36 2    
    73   37   38 2    
    74   37   39 am   BACKBONE|DICT|INTERRES
    75   39   40 1    
    76   39  105 1    
    77   40   41 1    
    78   40   42 1    
    79   40  106 1    
    80   41  107 1    
    81   41  108 1    
    82   41  109 1    
    83   42   43 2    
    84   42   44 am   BACKBONE|DICT|INTERRES
    85   44   45 1    
    86   44  110 1    
    87   45   46 1    
    88   45   47 1    
    89   45  111 1    
    90   46  112 1    
    91   46  113 1    
    92   46  114 1    
    93   47   48 2    
    94   47   49 am   BACKBONE|DICT|INTERRES
    95   49   50 1    
    96   49  115 1    
    97   50   51 1    
    98   50   52 1    
    99   50  116 1    
   100   51  117 1    
   101   51  118 1    
   102   51  119 1    
   103   52   53 2    
   104   52   54 am   BACKBONE|DICT|INTERRES
   105   54   55 1    
   106   54  120 1    
   107   55   56 1    
   108   55   57 1    
   109   55  121 1    
   110   56  122 1    
   111   56  123 1    
   112   56  124 1    
   113   57   58 2    
   114   57   59 am   BACKBONE|DICT|INTERRES
   115   59   60 1    
   116   59  125 1    
   117   60   61 1    
   118   60   62 1    
   119   60  126 1    
   120   61  127 1    
   121   61  128 1    
   122   61  129 1    
   123   62   63 2    
   124   62   64 am   BACKBONE|DICT|INTERRES
   125   64   65 1    
   126   64  130 1    
   127   65   66 1    
   128   65   69 1    
   129   65  131 1    
   130   66   67 am   BACKBONE|DICT|INTERRES
   131   66   68 2    
   132   67  132 1    
   133   67  133 1    
   134   69   70 1    
   135   69  134 1    
   136   69  135 1    
   137   70   71 1    
   138   71  136 1    
   139   71  137 1    
@<TRIPOS>SUBSTRUCTURE
     1 UNK         1 GROUP             0       ****    0 ROOT    
