@<TRIPOS>MOLECULE
3R137
137   139    1
SMALL
USER_CHARGES


@<TRIPOS>ATOM
      1 CA         26.4179   -6.4290    1.7935 C.3       0 UNK        -0.2020 
      2 C          26.2271   -4.9198    1.8040 C.2       0 UNK         0.4855 
      3 O          25.1976   -4.4357    2.2747 O.2       0 UNK        -0.5197 
      4 N          27.2127   -4.1726    1.2906 N.am      1 UNK        -0.4892 
      5 CA         27.1971   -2.7076    1.1816 C.3       1 UNK         0.0835 
      6 C6         28.6145   -2.1276    0.9292 C.3       12 UNK        -0.0855 
      7 S7         29.5470   -2.9699   -0.3997 S.3       12 UNK        -0.2931 
      8 C8         29.3335   -1.8044   -1.7782 C.3       12 UNK         0.0378 
      9 C9         29.8858   -2.3778   -3.0736 C.ar      12 UNK        -0.0802 
     10 C10        31.0461   -1.8501   -3.6448 C.ar      12 UNK        -0.0944 
     11 C11        31.5376   -2.3523   -4.8548 C.ar      12 UNK        -0.0787 
     12 C12        30.8705   -3.4147   -5.4772 C.ar      12 UNK        -0.0862 
     13 C13        29.7230   -3.9705   -4.9001 C.ar      12 UNK        -0.0733 
     14 C14        29.2287   -3.4356   -3.7066 C.ar      12 UNK        -0.0832 
     15 C15        29.0497   -5.1864   -5.5276 C.3       12 UNK         0.0240 
     16 S16        28.0436   -4.7864   -6.9924 S.3       12 UNK        -0.2522 
     17 C17        26.7154   -3.7533   -6.2822 C.3       12 UNK        -0.0967 
     18 CA         26.4719   -2.4489   -7.0781 C.3       5 UNK         0.0660 
     19 N          25.2873   -1.7313   -6.6059 N.am      5 UNK        -0.4015 
     20 C          24.6679   -0.7586   -7.2910 C.2       4 UNK         0.4946 
     21 O          24.9861   -0.4101   -8.4279 O.2       4 UNK        -0.5353 
     22 CA         23.5259   -0.0213   -6.5706 C.3       4 UNK         0.0277 
     23 CB         22.2030   -0.7884   -6.7247 C.3       4 UNK        -0.1981 
     24 N          23.8050    0.2019   -5.1494 N.am      4 UNK        -0.4209 
     25 C          24.7877    0.9899   -4.6890 C.2       3 UNK         0.4942 
     26 O          25.5144    1.6670   -5.4142 O.2       3 UNK        -0.5208 
     27 CA         25.0342    0.9909   -3.1705 C.3       3 UNK         0.0250 
     28 CB         24.2091    2.0959   -2.4927 C.3       3 UNK        -0.1990 
     29 N          24.7631   -0.2946   -2.5171 N.am      3 UNK        -0.4232 
     30 C          25.3753   -1.4510   -2.8062 C.2       2 UNK         0.4993 
     31 O          26.2225   -1.5725   -3.6941 O.2       2 UNK        -0.5286 
     32 CA         24.9597   -2.6787   -1.9763 C.3       2 UNK         0.0209 
     33 CB         24.8048   -3.9275   -2.8624 C.3       2 UNK        -0.1931 
     34 N          25.9141   -2.9719   -0.9055 N.am      2 UNK        -0.4546 
     35 C          26.1688   -2.1879    0.1529 C.2       1 UNK         0.5154 
     36 O          25.6120   -1.1072    0.3522 O.2       1 UNK        -0.5181 
     37 C          27.6964   -1.5155   -7.0906 C.2       5 UNK         0.5014 
     38 O          28.4181   -1.4967   -8.0870 O.2       5 UNK        -0.5248 
     39 N          27.8724   -0.7163   -6.0265 N.am      6 UNK        -0.4434 
     40 CA         28.9283    0.2956   -5.9306 C.3       6 UNK         0.0363 
     41 CB         28.8891    0.9788   -4.5552 C.3       6 UNK        -0.1936 
     42 C          28.8605    1.3389   -7.0589 C.2       6 UNK         0.5081 
     43 O          29.8853    1.6367   -7.6727 O.2       6 UNK        -0.5248 
     44 N          27.6484    1.8360   -7.3432 N.am      7 UNK        -0.4718 
     45 CA         27.3581    2.7540   -8.4458 C.3       7 UNK         0.0273 
     46 CB         25.9102    3.2561   -8.3304 C.3       7 UNK        -0.1935 
     47 C          27.6099    2.1352   -9.8310 C.2       7 UNK         0.5018 
     48 O          28.1666    2.8140  -10.6942 O.2       7 UNK        -0.5186 
     49 N          27.2161    0.8660  -10.0169 N.am      8 UNK        -0.4240 
     50 CA         27.4476    0.1021  -11.2465 C.3       8 UNK         0.0235 
     51 CB         26.6241   -1.1956  -11.2205 C.3       8 UNK        -0.2000 
     52 C          28.9360   -0.2009  -11.4882 C.2       8 UNK         0.4941 
     53 O          29.4028   -0.0631  -12.6197 O.2       8 UNK        -0.5273 
     54 N          29.6535   -0.5948  -10.4267 N.am      9 UNK        -0.4262 
     55 CA         31.0957   -0.8486  -10.4410 C.3       9 UNK         0.0264 
     56 CB         31.4955   -1.5814   -9.1488 C.3       9 UNK        -0.1955 
     57 C          31.9327    0.4311  -10.6056 C.2       9 UNK         0.5031 
     58 O          33.0131    0.3652  -11.1937 O.2       9 UNK        -0.5390 
     59 N          31.4314    1.5530  -10.0651 N.am      10 UNK        -0.4204 
     60 CA         32.0767    2.8685   -9.9698 C.3       10 UNK         0.0237 
     61 CB         32.3011    3.4864  -11.3664 C.3       10 UNK        -0.1985 
     62 C          33.3515    2.8352   -9.1023 C.2       10 UNK         0.4970 
     63 O          34.3057    3.5671   -9.3735 O.2       10 UNK        -0.4914 
     64 N          33.3426    1.9703   -8.0817 N.am      11 UNK        -0.4285 
     65 CA         34.4250    1.7786   -7.1111 C.3       11 UNK         0.1007 
     66 C          34.5370    2.9369   -6.0794 C.2       11 UNK         0.5703 
     67 N          35.6724    3.0509   -5.4028 N.am      11 UNK        -0.7361 
     68 O          33.6117    3.7210   -5.8725 O.2       11 UNK        -0.4986 
     69 C69        34.3314    0.3800   -6.4419 C.3       12 UNK        -0.0947 
     70 S70        32.7144    0.0366   -5.6708 S.3       12 UNK        -0.2240 
     71 C71        32.8069   -1.7713   -5.4684 C.3       12 UNK         0.0194 
     72 H72        27.3731   -6.7168    1.3547 H         1 UNK         0.0906 
     73 H73        26.3812   -6.8188    2.8104 H         1 UNK         0.0906 
     74 H74        25.6236   -6.9034    1.2177 H         1 UNK         0.0906 
     75 H75        28.0430   -4.6168    0.9212 H         1 UNK         0.3140 
     76 H76        26.8630   -2.3216    2.1477 H         1 UNK         0.1085 
     77 H77        28.5744   -1.0529    0.7388 H         1 UNK         0.0836 
     78 H78        29.2026   -2.2314    1.8424 H         1 UNK         0.0836 
     79 H79        29.8245   -0.8619   -1.5307 H         1 UNK         0.0731 
     80 H80        28.2767   -1.5757   -1.9114 H         1 UNK         0.0731 
     81 H81        31.5634   -1.0363   -3.1553 H         1 UNK         0.1312 
     82 H82        31.2515   -3.8241   -6.4029 H         1 UNK         0.1406 
     83 H83        28.3398   -3.8516   -3.2528 H         1 UNK         0.1631 
     84 H84        28.4225   -5.6988   -4.7964 H         1 UNK         0.0717 
     85 H85        29.8161   -5.9055   -5.8202 H         1 UNK         0.0717 
     86 H86        25.8049   -4.3542   -6.2706 H         1 UNK         0.0934 
     87 H87        26.9345   -3.5272   -5.2406 H         1 UNK         0.0934 
     88 H88        26.2777   -2.7346   -8.1144 H         1 UNK         0.0739 
     89 H89        25.0182   -1.8967   -5.6467 H         1 UNK         0.3093 
     90 H90        23.4124    0.9550   -7.0471 H         1 UNK         0.0818 
     91 H91        21.3703   -0.2344   -6.2908 H         1 UNK         0.0819 
     92 H92        21.9679   -0.9495   -7.7779 H         1 UNK         0.0819 
     93 H93        22.2415   -1.7678   -6.2462 H         1 UNK         0.0819 
     94 H94        23.2414   -0.3036   -4.4816 H         1 UNK         0.3041 
     95 H95        26.0914    1.2134   -3.0143 H         1 UNK         0.0784 
     96 H96        24.4125    3.0676   -2.9452 H         1 UNK         0.0793 
     97 H97        23.1373    1.9131   -2.5805 H         1 UNK         0.0793 
     98 H98        24.4510    2.1780   -1.4327 H         1 UNK         0.0793 
     99 H99        24.1194   -0.2744   -1.7382 H         1 UNK         0.3024 
    100 H100       23.9898   -2.4735   -1.5176 H         1 UNK         0.1171 
    101 H101       24.3870   -4.7617   -2.2983 H         1 UNK         0.0786 
    102 H102       24.1318   -3.7359   -3.6992 H         1 UNK         0.0786 
    103 H103       25.7591   -4.2527   -3.2770 H         1 UNK         0.0786 
    104 H104       26.4288   -3.8369   -0.9785 H         1 UNK         0.2977 
    105 H105       27.2598   -0.8308   -5.2242 H         1 UNK         0.3127 
    106 H106       29.8752   -0.2358   -6.0251 H         1 UNK         0.0770 
    107 H107       28.0156    1.6204   -4.4442 H         1 UNK         0.0814 
    108 H108       29.7714    1.6041   -4.4137 H         1 UNK         0.0814 
    109 H109       28.8728    0.2509   -3.7465 H         1 UNK         0.0814 
    110 H110       26.8665    1.5814   -6.7434 H         1 UNK         0.2983 
    111 H111       28.0261    3.6120   -8.3437 H         1 UNK         0.0947 
    112 H112       25.6739    3.9577   -9.1316 H         1 UNK         0.0806 
    113 H113       25.7452    3.7743   -7.3856 H         1 UNK         0.0806 
    114 H114       25.1932    2.4364   -8.3900 H         1 UNK         0.0806 
    115 H115       26.7184    0.3922   -9.2698 H         1 UNK         0.3000 
    116 H116       27.0949    0.7077  -12.0841 H         1 UNK         0.0850 
    117 H117       26.7664   -1.7670  -12.1386 H         1 UNK         0.0810 
    118 H118       25.5581   -0.9862  -11.1305 H         1 UNK         0.0810 
    119 H119       26.9092   -1.8389  -10.3877 H         1 UNK         0.0810 
    120 H120       29.1712   -0.7601   -9.5424 H         1 UNK         0.3040 
    121 H121       31.3166   -1.5013  -11.2881 H         1 UNK         0.0766 
    122 H122       31.2555   -0.9929   -8.2621 H         1 UNK         0.0812 
    123 H123       32.5668   -1.7856   -9.1267 H         1 UNK         0.0812 
    124 H124       30.9792   -2.5374   -9.0592 H         1 UNK         0.0812 
    125 H125       30.5763    1.4665   -9.5219 H         1 UNK         0.3205 
    126 H126       31.3698    3.5076   -9.4385 H         1 UNK         0.0754 
    127 H127       32.6415    4.5194  -11.2862 H         1 UNK         0.0769 
    128 H128       31.3782    3.4938  -11.9467 H         1 UNK         0.0769 
    129 H129       33.0529    2.9403  -11.9369 H         1 UNK         0.0769 
    130 H130       32.4914    1.4612   -7.8890 H         1 UNK         0.2981 
    131 H131       35.3573    1.7945   -7.6792 H         1 UNK         0.0541 
    132 H132       36.4390    2.4147   -5.5571 H         1 UNK         0.3459 
    133 H133       35.7648    3.7906   -4.7243 H         1 UNK         0.3459 
    134 H134       35.1140    0.2486   -5.6928 H         1 UNK         0.0612 
    135 H135       34.5138   -0.3853   -7.1979 H         1 UNK         0.0612 
    136 H136       33.0041   -2.2243   -6.4411 H         1 UNK         0.0624 
    137 H137       33.6553   -2.0171   -4.8285 H         1 UNK         0.0624 
@<TRIPOS>BOND
     1    1    2 1    
     2    1   72 1    
     3    1   73 1    
     4    1   74 1    
     5    2    3 2    
     6    2    4 am   BACKBONE|DICT|INTERRES
     7    4    5 1    
     8    4   75 1    
     9    5    6 1    
    10    5   35 1    
    11    5   76 1    
    12    6    7 1    
    13    6   77 1    
    14    6   78 1    
    15    7    8 1    
    16    8    9 1    
    17    8   79 1    
    18    8   80 1    
    19    9   10 ar   
    20    9   14 ar   
    21   10   11 ar   
    22   10   81 1    
    23   11   12 ar   
    24   11   71 1    
    25   12   13 ar   
    26   12   82 1    
    27   13   14 ar   
    28   13   15 1    
    29   14   83 1    
    30   15   16 1    
    31   15   84 1    
    32   15   85 1    
    33   16   17 1    
    34   17   18 1    
    35   17   86 1    
    36   17   87 1    
    37   18   19 1    
    38   18   37 1    
    39   18   88 1    
    40   19   20 am   BACKBONE|DICT|INTERRES
    41   19   89 1    
    42   20   21 2    
    43   20   22 1    
    44   22   23 1    
    45   22   24 1    
    46   22   90 1    
    47   23   91 1    
    48   23   92 1    
    49   23   93 1    
    50   24   25 am   BACKBONE|DICT|INTERRES
    51   24   94 1    
    52   25   26 2    
    53   25   27 1    
    54   27   28 1    
    55   27   29 1    
    56   27   95 1    
    57   28   96 1    
    58   28   97 1    
    59   28   98 1    
    60   29   30 am   BACKBONE|DICT|INTERRES
    61   29   99 1    
    62   30   31 2    
    63   30   32 1    
    64   32   33 1    
    65   32   34 1    
    66   32  100 1    
    67   33  101 1    
    68   33  102 1    
    69   33  103 1    
    70   34   35 am   BACKBONE|DICT|INTERRES
    71   34  104 1    
    72   35   36 2    
    73   37   38 2    
    74   37   39 am   BACKBONE|DICT|INTERRES
    75   39   40 1    
    76   39  105 1    
    77   40   41 1    
    78   40   42 1    
    79   40  106 1    
    80   41  107 1    
    81   41  108 1    
    82   41  109 1    
    83   42   43 2    
    84   42   44 am   BACKBONE|DICT|INTERRES
    85   44   45 1    
    86   44  110 1    
    87   45   46 1    
    88   45   47 1    
    89   45  111 1    
    90   46  112 1    
    91   46  113 1    
    92   46  114 1    
    93   47   48 2    
    94   47   49 am   BACKBONE|DICT|INTERRES
    95   49   50 1    
    96   49  115 1    
    97   50   51 1    
    98   50   52 1    
    99   50  116 1    
   100   51  117 1    
   101   51  118 1    
   102   51  119 1    
   103   52   53 2    
   104   52   54 am   BACKBONE|DICT|INTERRES
   105   54   55 1    
   106   54  120 1    
   107   55   56 1    
   108   55   57 1    
   109   55  121 1    
   110   56  122 1    
   111   56  123 1    
   112   56  124 1    
   113   57   58 2    
   114   57   59 am   BACKBONE|DICT|INTERRES
   115   59   60 1    
   116   59  125 1    
   117   60   61 1    
   118   60   62 1    
   119   60  126 1    
   120   61  127 1    
   121   61  128 1    
   122   61  129 1    
   123   62   63 2    
   124   62   64 am   BACKBONE|DICT|INTERRES
   125   64   65 1    
   126   64  130 1    
   127   65   66 1    
   128   65   69 1    
   129   65  131 1    
   130   66   67 am   BACKBONE|DICT|INTERRES
   131   66   68 2    
   132   67  132 1    
   133   67  133 1    
   134   69   70 1    
   135   69  134 1    
   136   69  135 1    
   137   70   71 1    
   138   71  136 1    
   139   71  137 1    
@<TRIPOS>SUBSTRUCTURE
     1 UNK         1 GROUP             0       ****    0 ROOT    
