@<TRIPOS>MOLECULE
3R137
137   139    1
SMALL
USER_CHARGES


@<TRIPOS>ATOM
      1 CA         25.9783   -6.6553   -3.9468 C.3       0 UNK        -0.2020 
      2 C          26.2513   -5.6358   -2.8519 C.2       0 UNK         0.4855 
      3 O          25.3150   -5.1849   -2.1913 O.2       0 UNK        -0.5197 
      4 N          27.5234   -5.2565   -2.6644 N.am      1 UNK        -0.4892 
      5 CA         27.9858   -4.2763   -1.6740 C.3       1 UNK         0.0835 
      6 C6         29.5296   -4.1626   -1.6809 C.3       12 UNK        -0.0855 
      7 S7         30.1645   -3.3708   -0.1655 S.3       12 UNK        -0.2931 
      8 C8         31.7404   -2.6661   -0.7525 C.3       12 UNK         0.0378 
      9 C9         31.5574   -1.5421   -1.7670 C.ar      12 UNK        -0.0802 
     10 C10        32.2032   -1.6030   -3.0053 C.ar      12 UNK        -0.0944 
     11 C11        32.0767   -0.5607   -3.9307 C.ar      12 UNK        -0.0787 
     12 C12        31.2987    0.5541   -3.6020 C.ar      12 UNK        -0.0862 
     13 C13        30.6499    0.6331   -2.3634 C.ar      12 UNK        -0.0733 
     14 C14        30.7852   -0.4199   -1.4532 C.ar      12 UNK        -0.0832 
     15 C15        29.8504    1.8698   -1.9605 C.3       12 UNK         0.0240 
     16 S16        28.7855    2.5415   -3.2787 S.3       12 UNK        -0.2522 
     17 C17        27.5954    1.1840   -3.5460 C.3       12 UNK        -0.0967 
     18 CA         27.4774    0.7906   -5.0417 C.3       5 UNK         0.0660 
     19 N          27.1199   -0.6249   -5.1929 N.am      5 UNK        -0.4015 
     20 C          27.0378   -1.3171   -6.3385 C.2       4 UNK         0.4946 
     21 O          27.3189   -0.8504   -7.4419 O.2       4 UNK        -0.5353 
     22 CA         26.4597   -2.7399   -6.2459 C.3       4 UNK         0.0277 
     23 CB         27.5713   -3.7835   -6.0762 C.3       4 UNK        -0.1981 
     24 N          25.4882   -2.8726   -5.1562 N.am      4 UNK        -0.4209 
     25 C          24.2451   -2.3700   -5.1852 C.2       3 UNK         0.4942 
     26 O          23.7704   -1.7851   -6.1577 O.2       3 UNK        -0.5208 
     27 CA         23.4014   -2.5136   -3.9075 C.3       3 UNK         0.0250 
     28 CB         22.6435   -3.8506   -3.9028 C.3       3 UNK        -0.1990 
     29 N          24.2126   -2.3927   -2.6927 N.am      3 UNK        -0.4232 
     30 C          24.6916   -1.2251   -2.2341 C.2       2 UNK         0.4993 
     31 O          24.4328   -0.1359   -2.7455 O.2       2 UNK        -0.5286 
     32 CA         25.6494   -1.2693   -1.0277 C.3       2 UNK         0.0209 
     33 CB         24.8697   -1.0870    0.2840 C.3       2 UNK        -0.1931 
     34 N          26.4578   -2.4904   -0.9468 N.am      2 UNK        -0.4546 
     35 C          27.3070   -2.9091   -1.8951 C.2       1 UNK         0.5154 
     36 O          27.5099   -2.2956   -2.9437 O.2       1 UNK        -0.5181 
     37 C          26.5519    1.7654   -5.8149 C.2       5 UNK         0.5014 
     38 O          26.9205    2.9258   -5.9960 O.2       5 UNK        -0.5248 
     39 N          25.4008    1.2967   -6.3248 N.am      6 UNK        -0.4434 
     40 CA         24.5733    2.0153   -7.3014 C.3       6 UNK         0.0363 
     41 CB         23.2923    1.2124   -7.5727 C.3       6 UNK        -0.1936 
     42 C          25.3106    2.3167   -8.6246 C.2       6 UNK         0.5081 
     43 O          24.9669    3.2908   -9.2938 O.2       6 UNK        -0.5248 
     44 N          26.3305    1.5109   -8.9575 N.am      7 UNK        -0.4718 
     45 CA         27.2616    1.7358  -10.0666 C.3       7 UNK         0.0273 
     46 CB         27.6406    0.3722  -10.6677 C.3       7 UNK        -0.1935 
     47 C          28.5164    2.5276   -9.6376 C.2       7 UNK         0.5018 
     48 O          29.4759    2.5946  -10.4088 O.2       7 UNK        -0.5186 
     49 N          28.5073    3.1059   -8.4257 N.am      8 UNK        -0.4240 
     50 CA         29.5970    3.8453   -7.7839 C.3       8 UNK         0.0235 
     51 CB         29.8538    5.1864   -8.5108 C.3       8 UNK        -0.2000 
     52 C          30.8385    2.9524   -7.6162 C.2       8 UNK         0.4941 
     53 O          30.7385    1.9033   -6.9799 O.2       8 UNK        -0.5273 
     54 N          31.9739    3.3656   -8.1938 N.am      9 UNK        -0.4262 
     55 CA         33.2331    2.6198   -8.1865 C.3       9 UNK         0.0264 
     56 CB         34.3689    3.5436   -8.6552 C.3       9 UNK        -0.1955 
     57 C          33.2004    1.3364   -9.0361 C.2       9 UNK         0.5031 
     58 O          33.9986    0.4352   -8.7780 O.2       9 UNK        -0.5390 
     59 N          32.2873    1.2471  -10.0150 N.am      10 UNK        -0.4204 
     60 CA         32.1320    0.0965  -10.9109 C.3       10 UNK         0.0237 
     61 CB         31.6240    0.5858  -12.2805 C.3       10 UNK        -0.1985 
     62 C          31.2376   -0.9996  -10.2973 C.2       10 UNK         0.4970 
     63 O          30.3856   -1.5567  -10.9905 O.2       10 UNK        -0.4914 
     64 N          31.4492   -1.2943   -9.0094 N.am      11 UNK        -0.4285 
     65 CA         30.7317   -2.3187   -8.2373 C.3       11 UNK         0.1007 
     66 C          31.0353   -3.7924   -8.6485 C.2       11 UNK         0.5703 
     67 N          32.0605   -4.0667   -9.4475 N.am      11 UNK        -0.7361 
     68 O          30.3200   -4.7044   -8.2431 O.2       11 UNK        -0.4986 
     69 C69        30.8984   -2.0887   -6.7107 C.3       12 UNK        -0.0947 
     70 S70        32.6340   -2.1789   -6.1493 S.3       12 UNK        -0.2240 
     71 C71        32.8269   -0.6015   -5.2592 C.3       12 UNK         0.0194 
     72 H72        26.8952   -6.9922   -4.4300 H         1 UNK         0.0906 
     73 H73        25.4762   -7.5272   -3.5286 H         1 UNK         0.0906 
     74 H74        25.3310   -6.2235   -4.7096 H         1 UNK         0.0906 
     75 H75        28.2442   -5.6525   -3.2507 H         1 UNK         0.3140 
     76 H76        27.6803   -4.6607   -0.6982 H         1 UNK         0.1085 
     77 H77        29.8774   -3.6272   -2.5671 H         1 UNK         0.0836 
     78 H78        29.9797   -5.1552   -1.7337 H         1 UNK         0.0836 
     79 H79        32.3516   -3.4701   -1.1659 H         1 UNK         0.0731 
     80 H80        32.2894   -2.2750    0.1051 H         1 UNK         0.0731 
     81 H81        32.8196   -2.4579   -3.2471 H         1 UNK         0.1312 
     82 H82        31.2118    1.3708   -4.3062 H         1 UNK         0.1406 
     83 H83        30.3008   -0.3643   -0.4876 H         1 UNK         0.1631 
     84 H84        30.5515    2.6468   -1.6537 H         1 UNK         0.0717 
     85 H85        29.2255    1.6591   -1.0911 H         1 UNK         0.0717 
     86 H86        27.9307    0.3272   -2.9607 H         1 UNK         0.0934 
     87 H87        26.6275    1.4653   -3.1269 H         1 UNK         0.0934 
     88 H88        28.4658    0.8829   -5.4984 H         1 UNK         0.0739 
     89 H89        26.9787   -1.1416   -4.3287 H         1 UNK         0.3093 
     90 H90        25.9458   -2.9469   -7.1874 H         1 UNK         0.0818 
     91 H91        28.1618   -3.6130   -5.1757 H         1 UNK         0.0819 
     92 H92        27.1664   -4.7939   -6.0313 H         1 UNK         0.0819 
     93 H93        28.2503   -3.7527   -6.9267 H         1 UNK         0.0819 
     94 H94        25.8253   -3.2757   -4.2936 H         1 UNK         0.3041 
     95 H95        22.6611   -1.7103   -3.9084 H         1 UNK         0.0784 
     96 H96        21.9878   -3.9275   -4.7712 H         1 UNK         0.0793 
     97 H97        23.3202   -4.7046   -3.9318 H         1 UNK         0.0793 
     98 H98        22.0180   -3.9489   -3.0155 H         1 UNK         0.0793 
     99 H99        24.4905   -3.2563   -2.2364 H         1 UNK         0.3024 
    100 H100       26.3381   -0.4286   -1.1343 H         1 UNK         0.1171 
    101 H101       25.5419   -1.0139    1.1392 H         1 UNK         0.0786 
    102 H102       24.2770   -0.1711    0.2617 H         1 UNK         0.0786 
    103 H103       24.1831   -1.9152    0.4645 H         1 UNK         0.0786 
    104 H104       26.3202   -3.0681   -0.1296 H         1 UNK         0.2977 
    105 H105       25.1421    0.3377   -6.1357 H         1 UNK         0.3127 
    106 H106       24.2922    2.9721   -6.8566 H         1 UNK         0.0770 
    107 H107       23.5122    0.2461   -8.0285 H         1 UNK         0.0814 
    108 H108       22.6314    1.7508   -8.2534 H         1 UNK         0.0814 
    109 H109       22.7335    1.0302   -6.6544 H         1 UNK         0.0814 
    110 H110       26.5554    0.7250   -8.3512 H         1 UNK         0.2983 
    111 H111       26.7690    2.3216  -10.8454 H         1 UNK         0.0947 
    112 H112       28.2807    0.4884  -11.5429 H         1 UNK         0.0806 
    113 H113       26.7576   -0.1814  -10.9866 H         1 UNK         0.0806 
    114 H114       28.1804   -0.2450   -9.9489 H         1 UNK         0.0806 
    115 H115       27.6978    2.9620   -7.8312 H         1 UNK         0.3000 
    116 H116       29.2585    4.0783   -6.7732 H         1 UNK         0.0850 
    117 H117       30.6016    5.7837   -7.9874 H         1 UNK         0.0810 
    118 H118       28.9437    5.7853   -8.5483 H         1 UNK         0.0810 
    119 H119       30.1932    5.0472   -9.5378 H         1 UNK         0.0810 
    120 H120       31.9613    4.2359   -8.7061 H         1 UNK         0.3040 
    121 H121       33.4402    2.3212   -7.1565 H         1 UNK         0.0766 
    122 H122       34.4608    4.4191   -8.0120 H         1 UNK         0.0812 
    123 H123       34.2126    3.8906   -9.6775 H         1 UNK         0.0812 
    124 H124       35.3284    3.0248   -8.6309 H         1 UNK         0.0812 
    125 H125       31.5965    1.9834  -10.1119 H         1 UNK         0.3205 
    126 H126       33.1113   -0.3578  -11.0761 H         1 UNK         0.0754 
    127 H127       31.5779   -0.2347  -12.9978 H         1 UNK         0.0769 
    128 H128       32.2853    1.3434  -12.7012 H         1 UNK         0.0769 
    129 H129       30.6244    1.0147  -12.2124 H         1 UNK         0.0769 
    130 H130       32.2017   -0.8212   -8.5254 H         1 UNK         0.2981 
    131 H131       29.6718   -2.1767   -8.4568 H         1 UNK         0.0541 
    132 H132       32.2405   -5.0234   -9.7076 H         1 UNK         0.3459 
    133 H133       32.6612   -3.3302   -9.7793 H         1 UNK         0.3459 
    134 H134       30.4800   -1.1162   -6.4443 H         1 UNK         0.0612 
    135 H135       30.3239   -2.8186   -6.1402 H         1 UNK         0.0612 
    136 H136       32.5132    0.2121   -5.9139 H         1 UNK         0.0624 
    137 H137       33.8877   -0.4440   -5.0614 H         1 UNK         0.0624 
@<TRIPOS>BOND
     1    1    2 1    
     2    1   72 1    
     3    1   73 1    
     4    1   74 1    
     5    2    3 2    
     6    2    4 am   BACKBONE|DICT|INTERRES
     7    4    5 1    
     8    4   75 1    
     9    5    6 1    
    10    5   35 1    
    11    5   76 1    
    12    6    7 1    
    13    6   77 1    
    14    6   78 1    
    15    7    8 1    
    16    8    9 1    
    17    8   79 1    
    18    8   80 1    
    19    9   10 ar   
    20    9   14 ar   
    21   10   11 ar   
    22   10   81 1    
    23   11   12 ar   
    24   11   71 1    
    25   12   13 ar   
    26   12   82 1    
    27   13   14 ar   
    28   13   15 1    
    29   14   83 1    
    30   15   16 1    
    31   15   84 1    
    32   15   85 1    
    33   16   17 1    
    34   17   18 1    
    35   17   86 1    
    36   17   87 1    
    37   18   19 1    
    38   18   37 1    
    39   18   88 1    
    40   19   20 am   BACKBONE|DICT|INTERRES
    41   19   89 1    
    42   20   21 2    
    43   20   22 1    
    44   22   23 1    
    45   22   24 1    
    46   22   90 1    
    47   23   91 1    
    48   23   92 1    
    49   23   93 1    
    50   24   25 am   BACKBONE|DICT|INTERRES
    51   24   94 1    
    52   25   26 2    
    53   25   27 1    
    54   27   28 1    
    55   27   29 1    
    56   27   95 1    
    57   28   96 1    
    58   28   97 1    
    59   28   98 1    
    60   29   30 am   BACKBONE|DICT|INTERRES
    61   29   99 1    
    62   30   31 2    
    63   30   32 1    
    64   32   33 1    
    65   32   34 1    
    66   32  100 1    
    67   33  101 1    
    68   33  102 1    
    69   33  103 1    
    70   34   35 am   BACKBONE|DICT|INTERRES
    71   34  104 1    
    72   35   36 2    
    73   37   38 2    
    74   37   39 am   BACKBONE|DICT|INTERRES
    75   39   40 1    
    76   39  105 1    
    77   40   41 1    
    78   40   42 1    
    79   40  106 1    
    80   41  107 1    
    81   41  108 1    
    82   41  109 1    
    83   42   43 2    
    84   42   44 am   BACKBONE|DICT|INTERRES
    85   44   45 1    
    86   44  110 1    
    87   45   46 1    
    88   45   47 1    
    89   45  111 1    
    90   46  112 1    
    91   46  113 1    
    92   46  114 1    
    93   47   48 2    
    94   47   49 am   BACKBONE|DICT|INTERRES
    95   49   50 1    
    96   49  115 1    
    97   50   51 1    
    98   50   52 1    
    99   50  116 1    
   100   51  117 1    
   101   51  118 1    
   102   51  119 1    
   103   52   53 2    
   104   52   54 am   BACKBONE|DICT|INTERRES
   105   54   55 1    
   106   54  120 1    
   107   55   56 1    
   108   55   57 1    
   109   55  121 1    
   110   56  122 1    
   111   56  123 1    
   112   56  124 1    
   113   57   58 2    
   114   57   59 am   BACKBONE|DICT|INTERRES
   115   59   60 1    
   116   59  125 1    
   117   60   61 1    
   118   60   62 1    
   119   60  126 1    
   120   61  127 1    
   121   61  128 1    
   122   61  129 1    
   123   62   63 2    
   124   62   64 am   BACKBONE|DICT|INTERRES
   125   64   65 1    
   126   64  130 1    
   127   65   66 1    
   128   65   69 1    
   129   65  131 1    
   130   66   67 am   BACKBONE|DICT|INTERRES
   131   66   68 2    
   132   67  132 1    
   133   67  133 1    
   134   69   70 1    
   135   69  134 1    
   136   69  135 1    
   137   70   71 1    
   138   71  136 1    
   139   71  137 1    
@<TRIPOS>SUBSTRUCTURE
     1 UNK         1 GROUP             0       ****    0 ROOT    
