@<TRIPOS>MOLECULE
3R137
137   139    1
SMALL
USER_CHARGES


@<TRIPOS>ATOM
      1 CA         27.1673    0.3647    1.9039 C.3       0 UNK        -0.2020 
      2 C          27.6232   -0.4563    0.7069 C.2       0 UNK         0.4855 
      3 O          27.7290    0.0795   -0.3966 O.2       0 UNK        -0.5197 
      4 N          27.9031   -1.7479    0.9195 N.am      1 UNK        -0.4892 
      5 CA         28.3054   -2.6923   -0.1275 C.3       1 UNK         0.0835 
      6 C6         29.0276   -3.9350    0.4545 C.3       12 UNK        -0.0855 
      7 S7         30.6153   -3.4997    1.2418 S.3       12 UNK        -0.2931 
      8 C8         31.8142   -3.9441   -0.0632 C.3       12 UNK         0.0378 
      9 C9         31.5618   -3.1978   -1.3685 C.ar      12 UNK        -0.0802 
     10 C10        31.3135   -3.9026   -2.5506 C.ar      12 UNK        -0.0944 
     11 C11        31.0646   -3.2171   -3.7426 C.ar      12 UNK        -0.0787 
     12 C12        31.0519   -1.8197   -3.7447 C.ar      12 UNK        -0.0862 
     13 C13        31.2704   -1.0973   -2.5639 C.ar      12 UNK        -0.0733 
     14 C14        31.5573   -1.7995   -1.3897 C.ar      12 UNK        -0.0832 
     15 C15        31.1937    0.4303   -2.4829 C.3       12 UNK         0.0240 
     16 S16        30.6180    1.3044   -3.9801 S.3       12 UNK        -0.2522 
     17 C17        28.8645    0.8030   -4.0827 C.3       12 UNK        -0.0967 
     18 CA         28.3046    1.0377   -5.5147 C.3       5 UNK         0.0660 
     19 N          27.6826   -0.1580   -6.0946 N.am      5 UNK        -0.4015 
     20 C          27.5191   -0.3373   -7.4158 C.2       4 UNK         0.4946 
     21 O          27.9459    0.4503   -8.2606 O.2       4 UNK        -0.5353 
     22 CA         26.7577   -1.5855   -7.8984 C.3       4 UNK         0.0277 
     23 CB         27.7444   -2.7278   -8.1886 C.3       4 UNK        -0.1981 
     24 N          25.7353   -2.0517   -6.9626 N.am      4 UNK        -0.4209 
     25 C          24.7037   -1.3220   -6.5137 C.2       3 UNK         0.4942 
     26 O          24.4285   -0.2011   -6.9389 O.2       3 UNK        -0.5208 
     27 CA         23.8897   -1.9036   -5.3418 C.3       3 UNK         0.0250 
     28 CB         22.5771   -2.5158   -5.8549 C.3       3 UNK        -0.1990 
     29 N          24.6117   -2.8996   -4.5352 N.am      3 UNK        -0.4232 
     30 C          25.7826   -2.6972   -3.9125 C.2       2 UNK         0.4993 
     31 O          26.4089   -1.6337   -3.9570 O.2       2 UNK        -0.5286 
     32 CA         26.4017   -3.9226   -3.2253 C.3       2 UNK         0.0209 
     33 CB         27.0865   -4.8207   -4.2698 C.3       2 UNK        -0.1931 
     34 N          27.3967   -3.5206   -2.2329 N.am      2 UNK        -0.4546 
     35 C          27.1041   -3.1189   -0.9907 C.2       1 UNK         0.5154 
     36 O          25.9637   -3.1225   -0.5173 O.2       1 UNK        -0.5181 
     37 C          27.3593    2.2524   -5.5847 C.2       5 UNK         0.5014 
     38 O          27.8145    3.3506   -5.9045 O.2       5 UNK        -0.5248 
     39 N          26.0561    2.0327   -5.3494 N.am      6 UNK        -0.4434 
     40 CA         25.0065    3.0471   -5.5050 C.3       6 UNK         0.0363 
     41 CB         23.6928    2.5386   -4.8897 C.3       6 UNK        -0.1936 
     42 C          24.8033    3.4612   -6.9742 C.2       6 UNK         0.5081 
     43 O          24.5589    4.6361   -7.2470 O.2       6 UNK        -0.5248 
     44 N          24.9582    2.4992   -7.8945 N.am      7 UNK        -0.4718 
     45 CA         24.9651    2.7054   -9.3464 C.3       7 UNK         0.0273 
     46 CB         24.7264    1.3521  -10.0361 C.3       7 UNK        -0.1935 
     47 C          26.2576    3.3579   -9.8815 C.2       7 UNK         0.5018 
     48 O          26.3062    3.6856  -11.0674 O.2       7 UNK        -0.5186 
     49 N          27.2759    3.5163   -9.0210 N.am      8 UNK        -0.4240 
     50 CA         28.6048    4.0836   -9.2857 C.3       8 UNK         0.0235 
     51 CB         28.5066    5.5570   -9.7362 C.3       8 UNK        -0.2000 
     52 C          29.4880    3.2309  -10.2200 C.2       8 UNK         0.4941 
     53 O          30.4644    3.7473  -10.7664 O.2       8 UNK        -0.5273 
     54 N          29.1670    1.9375  -10.3580 N.am      9 UNK        -0.4262 
     55 CA         30.0118    0.9356  -11.0129 C.3       9 UNK         0.0264 
     56 CB         29.1305   -0.2081  -11.5415 C.3       9 UNK        -0.1955 
     57 C          31.0799    0.3974  -10.0454 C.2       9 UNK         0.5031 
     58 O          32.1920    0.0903  -10.4767 O.2       9 UNK        -0.5390 
     59 N          30.7128    0.2990   -8.7574 N.am      10 UNK        -0.4204 
     60 CA         31.5429   -0.0647   -7.6022 C.3       10 UNK         0.0237 
     61 CB         32.5265    1.0780   -7.2757 C.3       10 UNK        -0.1985 
     62 C          32.2329   -1.4377   -7.7186 C.2       10 UNK         0.4970 
     63 O          33.3389   -1.6022   -7.2028 O.2       10 UNK        -0.4914 
     64 N          31.5596   -2.3827   -8.3950 N.am      11 UNK        -0.4285 
     65 CA         31.9887   -3.7646   -8.6881 C.3       11 UNK         0.1007 
     66 C          33.4093   -3.9300   -9.3147 C.2       11 UNK         0.5703 
     67 N          33.9261   -2.9314  -10.0223 N.am      11 UNK        -0.7361 
     68 O          34.0337   -4.9828   -9.2034 O.2       11 UNK        -0.4986 
     69 C69        31.6303   -4.7894   -7.5661 C.3       12 UNK        -0.0947 
     70 S70        32.3012   -4.4303   -5.9054 S.3       12 UNK        -0.2240 
     71 C71        30.7754   -3.9779   -5.0266 C.3       12 UNK         0.0194 
     72 H72        27.1340   -0.2285    2.8176 H         1 UNK         0.0906 
     73 H73        27.8480    1.1999    2.0667 H         1 UNK         0.0906 
     74 H74        26.1707    0.7672    1.7242 H         1 UNK         0.0906 
     75 H75        27.7858   -2.1416    1.8420 H         1 UNK         0.3140 
     76 H76        28.9908   -2.1677   -0.7930 H         1 UNK         0.1085 
     77 H77        28.3980   -4.4312    1.1955 H         1 UNK         0.0836 
     78 H78        29.2176   -4.6805   -0.3205 H         1 UNK         0.0836 
     79 H79        31.7832   -5.0237   -0.2187 H         1 UNK         0.0731 
     80 H80        32.8208   -3.7135    0.2878 H         1 UNK         0.0731 
     81 H81        31.3143   -4.9843   -2.5468 H         1 UNK         0.1312 
     82 H82        30.8532   -1.3056   -4.6723 H         1 UNK         0.1406 
     83 H83        31.7366   -1.2560   -0.4712 H         1 UNK         0.1631 
     84 H84        32.1856    0.8100   -2.2344 H         1 UNK         0.0717 
     85 H85        30.5394    0.7104   -1.6553 H         1 UNK         0.0717 
     86 H86        28.7817   -0.2471   -3.8005 H         1 UNK         0.0934 
     87 H87        28.3011    1.3411   -3.3169 H         1 UNK         0.0934 
     88 H88        29.1381    1.2946   -6.1713 H         1 UNK         0.0739 
     89 H89        27.2779   -0.8216   -5.4374 H         1 UNK         0.3093 
     90 H90        26.2531   -1.3242   -8.8298 H         1 UNK         0.0818 
     91 H91        27.2321   -3.6012   -8.5925 H         1 UNK         0.0819 
     92 H92        28.4860   -2.4248   -8.9278 H         1 UNK         0.0819 
     93 H93        28.2815   -3.0392   -7.2921 H         1 UNK         0.0819 
     94 H94        25.8692   -2.9690   -6.5649 H         1 UNK         0.3041 
     95 H95        23.6435   -1.0693   -4.6817 H         1 UNK         0.0784 
     96 H96        22.0086   -1.7884   -6.4367 H         1 UNK         0.0793 
     97 H97        22.7569   -3.3781   -6.4982 H         1 UNK         0.0793 
     98 H98        21.9388   -2.8365   -5.0313 H         1 UNK         0.0793 
     99 H99        24.1788   -3.8099   -4.4645 H         1 UNK         0.3024 
    100 H100       25.6100   -4.4894   -2.7290 H         1 UNK         0.1171 
    101 H101       27.8265   -4.2706   -4.8515 H         1 UNK         0.0786 
    102 H102       27.5895   -5.6663   -3.7998 H         1 UNK         0.0786 
    103 H103       26.3611   -5.2317   -4.9731 H         1 UNK         0.0786 
    104 H104       28.3505   -3.4507   -2.5569 H         1 UNK         0.2977 
    105 H105       25.7529    1.0954   -5.1264 H         1 UNK         0.3127 
    106 H106       25.3168    3.9366   -4.9523 H         1 UNK         0.0770 
    107 H107       23.8175    2.2886   -3.8361 H         1 UNK         0.0814 
    108 H108       23.3164    1.6538   -5.4035 H         1 UNK         0.0814 
    109 H109       22.9162    3.3022   -4.9508 H         1 UNK         0.0814 
    110 H110       25.0542    1.5405   -7.5705 H         1 UNK         0.2983 
    111 H111       24.1377    3.3716   -9.6004 H         1 UNK         0.0947 
    112 H112       25.5579    0.6677   -9.8710 H         1 UNK         0.0806 
    113 H113       24.6177    1.4761  -11.1144 H         1 UNK         0.0806 
    114 H114       23.8177    0.8722   -9.6718 H         1 UNK         0.0806 
    115 H115       27.1285    3.2069   -8.0684 H         1 UNK         0.3000 
    116 H116       29.1168    4.0765   -8.3222 H         1 UNK         0.0850 
    117 H117       27.8905    6.1405   -9.0520 H         1 UNK         0.0810 
    118 H118       28.0802    5.6489  -10.7354 H         1 UNK         0.0810 
    119 H119       29.4913    6.0253   -9.7614 H         1 UNK         0.0810 
    120 H120       28.3821    1.5836   -9.8198 H         1 UNK         0.3040 
    121 H121       30.5248    1.3926  -11.8619 H         1 UNK         0.0766 
    122 H122       29.7355   -0.9745  -12.0280 H         1 UNK         0.0812 
    123 H123       28.4153    0.1561  -12.2793 H         1 UNK         0.0812 
    124 H124       28.5667   -0.6920  -10.7437 H         1 UNK         0.0812 
    125 H125       29.7403    0.5158   -8.5451 H         1 UNK         0.3205 
    126 H126       30.8606   -0.1589   -6.7586 H         1 UNK         0.0754 
    127 H127       33.0583    0.8853   -6.3429 H         1 UNK         0.0769 
    128 H128       32.0034    2.0267   -7.1547 H         1 UNK         0.0769 
    129 H129       33.2733    1.2027   -8.0606 H         1 UNK         0.0769 
    130 H130       30.6834   -2.1119   -8.8119 H         1 UNK         0.2981 
    131 H131       31.3491   -4.0465   -9.5252 H         1 UNK         0.0541 
    132 H132       34.8369   -3.0417  -10.4385 H         1 UNK         0.3459 
    133 H133       33.4267   -2.0589  -10.1206 H         1 UNK         0.3459 
    134 H134       30.5443   -4.8627   -7.4943 H         1 UNK         0.0612 
    135 H135       31.9528   -5.7934   -7.8464 H         1 UNK         0.0612 
    136 H136       30.2091   -4.8845   -4.8093 H         1 UNK         0.0624 
    137 H137       30.1489   -3.3672   -5.6783 H         1 UNK         0.0624 
@<TRIPOS>BOND
     1    1    2 1    
     2    1   72 1    
     3    1   73 1    
     4    1   74 1    
     5    2    3 2    
     6    2    4 am   BACKBONE|DICT|INTERRES
     7    4    5 1    
     8    4   75 1    
     9    5    6 1    
    10    5   35 1    
    11    5   76 1    
    12    6    7 1    
    13    6   77 1    
    14    6   78 1    
    15    7    8 1    
    16    8    9 1    
    17    8   79 1    
    18    8   80 1    
    19    9   10 ar   
    20    9   14 ar   
    21   10   11 ar   
    22   10   81 1    
    23   11   12 ar   
    24   11   71 1    
    25   12   13 ar   
    26   12   82 1    
    27   13   14 ar   
    28   13   15 1    
    29   14   83 1    
    30   15   16 1    
    31   15   84 1    
    32   15   85 1    
    33   16   17 1    
    34   17   18 1    
    35   17   86 1    
    36   17   87 1    
    37   18   19 1    
    38   18   37 1    
    39   18   88 1    
    40   19   20 am   BACKBONE|DICT|INTERRES
    41   19   89 1    
    42   20   21 2    
    43   20   22 1    
    44   22   23 1    
    45   22   24 1    
    46   22   90 1    
    47   23   91 1    
    48   23   92 1    
    49   23   93 1    
    50   24   25 am   BACKBONE|DICT|INTERRES
    51   24   94 1    
    52   25   26 2    
    53   25   27 1    
    54   27   28 1    
    55   27   29 1    
    56   27   95 1    
    57   28   96 1    
    58   28   97 1    
    59   28   98 1    
    60   29   30 am   BACKBONE|DICT|INTERRES
    61   29   99 1    
    62   30   31 2    
    63   30   32 1    
    64   32   33 1    
    65   32   34 1    
    66   32  100 1    
    67   33  101 1    
    68   33  102 1    
    69   33  103 1    
    70   34   35 am   BACKBONE|DICT|INTERRES
    71   34  104 1    
    72   35   36 2    
    73   37   38 2    
    74   37   39 am   BACKBONE|DICT|INTERRES
    75   39   40 1    
    76   39  105 1    
    77   40   41 1    
    78   40   42 1    
    79   40  106 1    
    80   41  107 1    
    81   41  108 1    
    82   41  109 1    
    83   42   43 2    
    84   42   44 am   BACKBONE|DICT|INTERRES
    85   44   45 1    
    86   44  110 1    
    87   45   46 1    
    88   45   47 1    
    89   45  111 1    
    90   46  112 1    
    91   46  113 1    
    92   46  114 1    
    93   47   48 2    
    94   47   49 am   BACKBONE|DICT|INTERRES
    95   49   50 1    
    96   49  115 1    
    97   50   51 1    
    98   50   52 1    
    99   50  116 1    
   100   51  117 1    
   101   51  118 1    
   102   51  119 1    
   103   52   53 2    
   104   52   54 am   BACKBONE|DICT|INTERRES
   105   54   55 1    
   106   54  120 1    
   107   55   56 1    
   108   55   57 1    
   109   55  121 1    
   110   56  122 1    
   111   56  123 1    
   112   56  124 1    
   113   57   58 2    
   114   57   59 am   BACKBONE|DICT|INTERRES
   115   59   60 1    
   116   59  125 1    
   117   60   61 1    
   118   60   62 1    
   119   60  126 1    
   120   61  127 1    
   121   61  128 1    
   122   61  129 1    
   123   62   63 2    
   124   62   64 am   BACKBONE|DICT|INTERRES
   125   64   65 1    
   126   64  130 1    
   127   65   66 1    
   128   65   69 1    
   129   65  131 1    
   130   66   67 am   BACKBONE|DICT|INTERRES
   131   66   68 2    
   132   67  132 1    
   133   67  133 1    
   134   69   70 1    
   135   69  134 1    
   136   69  135 1    
   137   70   71 1    
   138   71  136 1    
   139   71  137 1    
@<TRIPOS>SUBSTRUCTURE
     1 UNK         1 GROUP             0       ****    0 ROOT    
