@<TRIPOS>MOLECULE
3R137
137   139    1
SMALL
USER_CHARGES


@<TRIPOS>ATOM
      1 CA         26.8369   -6.3447   -2.9451 C.3       0 UNK        -0.2020 
      2 C          26.3769   -5.4747   -1.7857 C.2       0 UNK         0.4855 
      3 O          25.5328   -5.9019   -0.9980 O.2       0 UNK        -0.5197 
      4 N          26.9098   -4.2507   -1.6792 N.am      1 UNK        -0.4892 
      5 CA         26.5544   -3.2743   -0.6434 C.3       1 UNK         0.0835 
      6 C6         27.7167   -2.2963   -0.3326 C.3       12 UNK        -0.0855 
      7 S7         29.0739   -3.1540    0.5412 S.3       12 UNK        -0.2931 
      8 C8         30.5500   -2.2098    0.0151 C.3       12 UNK         0.0378 
      9 C9         30.9965   -2.3980   -1.4377 C.ar      12 UNK        -0.0802 
     10 C10        32.0030   -1.5603   -1.9350 C.ar      12 UNK        -0.0944 
     11 C11        32.4338   -1.6691   -3.2608 C.ar      12 UNK        -0.0787 
     12 C12        31.8624   -2.6327   -4.0918 C.ar      12 UNK        -0.0862 
     13 C13        30.8189   -3.4359   -3.6296 C.ar      12 UNK        -0.0733 
     14 C14        30.4224   -3.3487   -2.2937 C.ar      12 UNK        -0.0832 
     15 C15        30.0388   -4.2966   -4.6120 C.3       12 UNK         0.0240 
     16 S16        28.5292   -3.4289   -5.1793 S.3       12 UNK        -0.2522 
     17 C17        29.2153   -1.8037   -5.6601 C.3       12 UNK        -0.0967 
     18 CA         28.2388   -0.8752   -6.4134 C.3       5 UNK         0.0660 
     19 N          27.0047   -0.6592   -5.6499 N.am      5 UNK        -0.4015 
     20 C          25.9901    0.1511   -5.9809 C.2       4 UNK         0.4946 
     21 O          25.9812    0.8697   -6.9827 O.2       4 UNK        -0.5353 
     22 CA         24.8066    0.1635   -4.9982 C.3       4 UNK         0.0277 
     23 CB         23.6245    1.0337   -5.4752 C.3       4 UNK        -0.1981 
     24 N          24.3641   -1.1911   -4.6478 N.am      4 UNK        -0.4209 
     25 C          23.8249   -2.1116   -5.4671 C.2       3 UNK         0.4942 
     26 O          23.6395   -1.9367   -6.6718 O.2       3 UNK        -0.5208 
     27 CA         23.4209   -3.4690   -4.8525 C.3       3 UNK         0.0250 
     28 CB         24.4012   -4.5673   -5.2988 C.3       3 UNK        -0.1990 
     29 N          23.3567   -3.4653   -3.3894 N.am      3 UNK        -0.4232 
     30 C          22.4933   -2.7643   -2.6402 C.2       2 UNK         0.4993 
     31 O          21.5368   -2.1415   -3.1013 O.2       2 UNK        -0.5286 
     32 CA         22.7671   -2.7135   -1.1239 C.3       2 UNK         0.0209 
     33 CB         21.7331   -3.5576   -0.3607 C.3       2 UNK        -0.1931 
     34 N          24.1170   -3.1497   -0.7392 N.am      2 UNK        -0.4546 
     35 C          25.2684   -2.5540   -1.0849 C.2       1 UNK         0.5154 
     36 O          25.3325   -1.5486   -1.7968 O.2       1 UNK        -0.5181 
     37 C          28.9747    0.4333   -6.7753 C.2       5 UNK         0.5014 
     38 O          29.4962    0.5487   -7.8847 O.2       5 UNK        -0.5248 
     39 N          28.9959    1.3952   -5.8411 N.am      6 UNK        -0.4434 
     40 CA         29.6169    2.7086   -6.0190 C.3       6 UNK         0.0363 
     41 CB         29.7527    3.4007   -4.6541 C.3       6 UNK        -0.1936 
     42 C          28.8581    3.6057   -7.0115 C.2       6 UNK         0.5081 
     43 O          29.4980    4.3554   -7.7477 O.2       6 UNK        -0.5248 
     44 N          27.5215    3.4958   -7.0476 N.am      7 UNK        -0.4718 
     45 CA         26.6645    4.1991   -8.0093 C.3       7 UNK         0.0273 
     46 CB         25.2116    4.2102   -7.5088 C.3       7 UNK        -0.1935 
     47 C          26.7540    3.5735   -9.4103 C.2       7 UNK         0.5018 
     48 O          26.7202    4.2997  -10.4038 O.2       7 UNK        -0.5186 
     49 N          26.9203    2.2439   -9.4589 N.am      8 UNK        -0.4240 
     50 CA         27.2270    1.4758  -10.6693 C.3       8 UNK         0.0235 
     51 CB         26.9542   -0.0124  -10.3924 C.3       8 UNK        -0.2000 
     52 C          28.6709    1.6754  -11.1789 C.2       8 UNK         0.4941 
     53 O          28.9741    1.2361  -12.2886 O.2       8 UNK        -0.5273 
     54 N          29.5287    2.3116  -10.3646 N.am      9 UNK        -0.4262 
     55 CA         30.9564    2.5786  -10.5748 C.3       9 UNK         0.0264 
     56 CB         31.1779    3.5097  -11.7856 C.3       9 UNK        -0.1955 
     57 C          31.8172    1.3010  -10.6326 C.2       9 UNK         0.5031 
     58 O          32.8755    1.3024  -11.2648 O.2       9 UNK        -0.5390 
     59 N          31.3744    0.2388   -9.9458 N.am      10 UNK        -0.4204 
     60 CA         32.0671   -1.0493   -9.8636 C.3       10 UNK         0.0237 
     61 CB         31.0659   -2.1362   -9.4418 C.3       10 UNK        -0.1985 
     62 C          33.2837   -1.0213   -8.9211 C.2       10 UNK         0.4970 
     63 O          34.1495   -1.8889   -9.0405 O.2       10 UNK        -0.4914 
     64 N          33.3412   -0.0313   -8.0193 N.am      11 UNK        -0.4285 
     65 CA         34.4782    0.2202   -7.1181 C.3       11 UNK         0.1007 
     66 C          35.7454    0.7910   -7.8224 C.2       11 UNK         0.5703 
     67 N          35.6822    1.2125   -9.0811 N.am      11 UNK        -0.7361 
     68 O          36.8112    0.8454   -7.2135 O.2       11 UNK        -0.4986 
     69 C69        34.0810    1.1028   -5.9026 C.3       12 UNK        -0.0947 
     70 S70        32.6496    0.4558   -4.9807 S.3       12 UNK        -0.2240 
     71 C71        33.4597   -0.7082   -3.8377 C.3       12 UNK         0.0194 
     72 H72        27.3763   -5.7717   -3.6970 H         1 UNK         0.0906 
     73 H73        27.4917   -7.1363   -2.5823 H         1 UNK         0.0906 
     74 H74        25.9793   -6.8092   -3.4309 H         1 UNK         0.0906 
     75 H75        27.5546   -3.9241   -2.3840 H         1 UNK         0.3140 
     76 H76        26.3259   -3.8042    0.2850 H         1 UNK         0.1085 
     77 H77        28.0887   -1.8291   -1.2465 H         1 UNK         0.0836 
     78 H78        27.3749   -1.4820    0.3095 H         1 UNK         0.0836 
     79 H79        31.3791   -2.4946    0.6641 H         1 UNK         0.0731 
     80 H80        30.3645   -1.1506    0.2013 H         1 UNK         0.0731 
     81 H81        32.4375   -0.8056   -1.2933 H         1 UNK         0.1312 
     82 H82        32.1691   -2.6891   -5.1275 H         1 UNK         0.1406 
     83 H83        29.6328   -3.9955   -1.9454 H         1 UNK         0.1631 
     84 H84        29.7645   -5.2441   -4.1466 H         1 UNK         0.0717 
     85 H85        30.6557   -4.5458   -5.4769 H         1 UNK         0.0717 
     86 H86        29.5554   -1.3042   -4.7504 H         1 UNK         0.0934 
     87 H87        30.1075   -1.9815   -6.2614 H         1 UNK         0.0934 
     88 H88        27.9535   -1.3589   -7.3494 H         1 UNK         0.0739 
     89 H89        26.9067   -1.2255   -4.8200 H         1 UNK         0.3093 
     90 H90        25.1816    0.6055   -4.0737 H         1 UNK         0.0818 
     91 H91        23.2578    0.7224   -6.4539 H         1 UNK         0.0819 
     92 H92        22.7908    0.9895   -4.7745 H         1 UNK         0.0819 
     93 H93        23.9219    2.0791   -5.5568 H         1 UNK         0.0819 
     94 H94        24.5016   -1.4444   -3.6741 H         1 UNK         0.3041 
     95 H95        22.4267   -3.7149   -5.2313 H         1 UNK         0.0784 
     96 H96        24.4410   -4.6365   -6.3868 H         1 UNK         0.0793 
     97 H97        25.4156   -4.3689   -4.9504 H         1 UNK         0.0793 
     98 H98        24.1003   -5.5464   -4.9257 H         1 UNK         0.0793 
     99 H99        24.0884   -3.9631   -2.9046 H         1 UNK         0.3024 
    100 H100       22.6560   -1.6705   -0.8186 H         1 UNK         0.1171 
    101 H101       20.7163   -3.2410   -0.5985 H         1 UNK         0.0786 
    102 H102       21.8120   -4.6161   -0.6120 H         1 UNK         0.0786 
    103 H103       21.8562   -3.4574    0.7179 H         1 UNK         0.0786 
    104 H104       24.1740   -4.0179   -0.2222 H         1 UNK         0.2977 
    105 H105       28.5533    1.2159   -4.9520 H         1 UNK         0.3127 
    106 H106       30.6214    2.5531   -6.4195 H         1 UNK         0.0770 
    107 H107       28.7826    3.5666   -4.1842 H         1 UNK         0.0814 
    108 H108       30.2356    4.3735   -4.7579 H         1 UNK         0.0814 
    109 H109       30.3633    2.8101   -3.9706 H         1 UNK         0.0814 
    110 H110       27.0723    2.8001   -6.4669 H         1 UNK         0.2983 
    111 H111       27.0063    5.2342   -8.0830 H         1 UNK         0.0947 
    112 H112       24.5824    4.8139   -8.1640 H         1 UNK         0.0806 
    113 H113       25.1368    4.6336   -6.5071 H         1 UNK         0.0806 
    114 H114       24.7835    3.2081   -7.4862 H         1 UNK         0.0806 
    115 H115       26.8520    1.7233   -8.5887 H         1 UNK         0.3000 
    116 H116       26.5537    1.8070  -11.4626 H         1 UNK         0.0850 
    117 H117       27.0952   -0.6101  -11.2939 H         1 UNK         0.0810 
    118 H118       25.9307   -0.1734  -10.0527 H         1 UNK         0.0810 
    119 H119       27.6254   -0.4101   -9.6313 H         1 UNK         0.0810 
    120 H120       29.1706    2.6011   -9.4643 H         1 UNK         0.3040 
    121 H121       31.2885    3.1174   -9.6862 H         1 UNK         0.0766 
    122 H122       30.5637    4.4072  -11.7127 H         1 UNK         0.0812 
    123 H123       30.9397    3.0142  -12.7272 H         1 UNK         0.0812 
    124 H124       32.2175    3.8341  -11.8448 H         1 UNK         0.0812 
    125 H125       30.5365    0.3446   -9.3740 H         1 UNK         0.3205 
    126 H126       32.4372   -1.3024  -10.8594 H         1 UNK         0.0754 
    127 H127       31.5463   -3.1141   -9.3883 H         1 UNK         0.0769 
    128 H128       30.2457   -2.2162  -10.1556 H         1 UNK         0.0769 
    129 H129       30.6364   -1.9284   -8.4639 H         1 UNK         0.0769 
    130 H130       32.5781    0.6259   -7.9699 H         1 UNK         0.2981 
    131 H131       34.7835   -0.7495   -6.7210 H         1 UNK         0.0541 
    132 H132       36.5141    1.5745   -9.5196 H         1 UNK         0.3459 
    133 H133       34.8192    1.1644   -9.6016 H         1 UNK         0.3459 
    134 H134       33.8313    2.1118   -6.2357 H         1 UNK         0.0612 
    135 H135       34.9177    1.2101   -5.2095 H         1 UNK         0.0612 
    136 H136       34.2265   -1.2760   -4.3664 H         1 UNK         0.0624 
    137 H137       33.9662   -0.1501   -3.0489 H         1 UNK         0.0624 
@<TRIPOS>BOND
     1    1    2 1    
     2    1   72 1    
     3    1   73 1    
     4    1   74 1    
     5    2    3 2    
     6    2    4 am   BACKBONE|DICT|INTERRES
     7    4    5 1    
     8    4   75 1    
     9    5    6 1    
    10    5   35 1    
    11    5   76 1    
    12    6    7 1    
    13    6   77 1    
    14    6   78 1    
    15    7    8 1    
    16    8    9 1    
    17    8   79 1    
    18    8   80 1    
    19    9   10 ar   
    20    9   14 ar   
    21   10   11 ar   
    22   10   81 1    
    23   11   12 ar   
    24   11   71 1    
    25   12   13 ar   
    26   12   82 1    
    27   13   14 ar   
    28   13   15 1    
    29   14   83 1    
    30   15   16 1    
    31   15   84 1    
    32   15   85 1    
    33   16   17 1    
    34   17   18 1    
    35   17   86 1    
    36   17   87 1    
    37   18   19 1    
    38   18   37 1    
    39   18   88 1    
    40   19   20 am   BACKBONE|DICT|INTERRES
    41   19   89 1    
    42   20   21 2    
    43   20   22 1    
    44   22   23 1    
    45   22   24 1    
    46   22   90 1    
    47   23   91 1    
    48   23   92 1    
    49   23   93 1    
    50   24   25 am   BACKBONE|DICT|INTERRES
    51   24   94 1    
    52   25   26 2    
    53   25   27 1    
    54   27   28 1    
    55   27   29 1    
    56   27   95 1    
    57   28   96 1    
    58   28   97 1    
    59   28   98 1    
    60   29   30 am   BACKBONE|DICT|INTERRES
    61   29   99 1    
    62   30   31 2    
    63   30   32 1    
    64   32   33 1    
    65   32   34 1    
    66   32  100 1    
    67   33  101 1    
    68   33  102 1    
    69   33  103 1    
    70   34   35 am   BACKBONE|DICT|INTERRES
    71   34  104 1    
    72   35   36 2    
    73   37   38 2    
    74   37   39 am   BACKBONE|DICT|INTERRES
    75   39   40 1    
    76   39  105 1    
    77   40   41 1    
    78   40   42 1    
    79   40  106 1    
    80   41  107 1    
    81   41  108 1    
    82   41  109 1    
    83   42   43 2    
    84   42   44 am   BACKBONE|DICT|INTERRES
    85   44   45 1    
    86   44  110 1    
    87   45   46 1    
    88   45   47 1    
    89   45  111 1    
    90   46  112 1    
    91   46  113 1    
    92   46  114 1    
    93   47   48 2    
    94   47   49 am   BACKBONE|DICT|INTERRES
    95   49   50 1    
    96   49  115 1    
    97   50   51 1    
    98   50   52 1    
    99   50  116 1    
   100   51  117 1    
   101   51  118 1    
   102   51  119 1    
   103   52   53 2    
   104   52   54 am   BACKBONE|DICT|INTERRES
   105   54   55 1    
   106   54  120 1    
   107   55   56 1    
   108   55   57 1    
   109   55  121 1    
   110   56  122 1    
   111   56  123 1    
   112   56  124 1    
   113   57   58 2    
   114   57   59 am   BACKBONE|DICT|INTERRES
   115   59   60 1    
   116   59  125 1    
   117   60   61 1    
   118   60   62 1    
   119   60  126 1    
   120   61  127 1    
   121   61  128 1    
   122   61  129 1    
   123   62   63 2    
   124   62   64 am   BACKBONE|DICT|INTERRES
   125   64   65 1    
   126   64  130 1    
   127   65   66 1    
   128   65   69 1    
   129   65  131 1    
   130   66   67 am   BACKBONE|DICT|INTERRES
   131   66   68 2    
   132   67  132 1    
   133   67  133 1    
   134   69   70 1    
   135   69  134 1    
   136   69  135 1    
   137   70   71 1    
   138   71  136 1    
   139   71  137 1    
@<TRIPOS>SUBSTRUCTURE
     1 UNK         1 GROUP             0       ****    0 ROOT    
