@<TRIPOS>MOLECULE
3R137
137   139    1
SMALL
USER_CHARGES


@<TRIPOS>ATOM
      1 CA         26.1519   -0.7166    1.4982 C.3       0 UNK        -0.2020 
      2 C          26.2855   -2.0168    0.7193 C.2       0 UNK         0.4855 
      3 O          25.9008   -3.0710    1.2265 O.2       0 UNK        -0.5197 
      4 N          26.8349   -1.9464   -0.5010 N.am      1 UNK        -0.4892 
      5 CA         27.0032   -3.0585   -1.4464 C.3       1 UNK         0.0835 
      6 C6         27.8872   -4.2096   -0.8763 C.3       12 UNK        -0.0855 
      7 S7         29.0025   -4.9150   -2.1377 S.3       12 UNK        -0.2931 
      8 C8         30.6263   -4.2861   -1.5950 C.3       12 UNK         0.0378 
      9 C9         30.8569   -2.8340   -1.9970 C.ar      12 UNK        -0.0802 
     10 C10        31.6308   -2.5305   -3.1210 C.ar      12 UNK        -0.0944 
     11 C11        31.8927   -1.2016   -3.4704 C.ar      12 UNK        -0.0787 
     12 C12        31.3605   -0.1676   -2.6931 C.ar      12 UNK        -0.0862 
     13 C13        30.5599   -0.4581   -1.5833 C.ar      12 UNK        -0.0733 
     14 C14        30.3297   -1.7906   -1.2306 C.ar      12 UNK        -0.0832 
     15 C15        29.9434    0.6577   -0.7526 C.3       12 UNK         0.0240 
     16 S16        28.2619    1.0643   -1.3274 S.3       12 UNK        -0.2522 
     17 C17        28.6105    2.1032   -2.7833 C.3       12 UNK        -0.0967 
     18 CA         28.4194    1.3429   -4.1202 C.3       5 UNK         0.0660 
     19 N          27.0101    1.0756   -4.4040 N.am      5 UNK        -0.4015 
     20 C          26.4813   -0.1421   -4.5500 C.2       4 UNK         0.4946 
     21 O          27.0994   -1.1884   -4.3294 O.2       4 UNK        -0.5353 
     22 CA         25.0358   -0.2229   -5.0734 C.3       4 UNK         0.0277 
     23 CB         24.8022    0.7403   -6.2607 C.3       4 UNK        -0.1981 
     24 N          24.8354   -1.6149   -5.4644 N.am      4 UNK        -0.4209 
     25 C          23.7740   -2.2035   -6.0238 C.2       3 UNK         0.4942 
     26 O          22.7090   -1.6408   -6.2787 O.2       3 UNK        -0.5208 
     27 CA         23.9450   -3.6964   -6.3422 C.3       3 UNK         0.0250 
     28 CB         24.8933   -3.8994   -7.5375 C.3       3 UNK        -0.1990 
     29 N          24.4511   -4.4278   -5.1783 N.am      3 UNK        -0.4232 
     30 C          23.6814   -4.8274   -4.1574 C.2       2 UNK         0.4993 
     31 O          22.4566   -4.6996   -4.1258 O.2       2 UNK        -0.5286 
     32 CA         24.3998   -5.4795   -2.9663 C.3       2 UNK         0.0209 
     33 CB         24.7387   -6.9486   -3.2690 C.3       2 UNK        -0.1931 
     34 N          25.6142   -4.7738   -2.5434 N.am      2 UNK        -0.4546 
     35 C          25.6440   -3.5419   -2.0125 C.2       1 UNK         0.5154 
     36 O          24.6526   -2.8094   -1.9495 O.2       1 UNK        -0.5181 
     37 C          28.9926    2.1783   -5.2759 C.2       5 UNK         0.5014 
     38 O          28.2533    2.9270   -5.9218 O.2       5 UNK        -0.5248 
     39 N          30.3158    2.0773   -5.4590 N.am      6 UNK        -0.4434 
     40 CA         31.1481    2.8716   -6.3655 C.3       6 UNK         0.0363 
     41 CB         31.2152    4.3408   -5.8882 C.3       6 UNK        -0.1936 
     42 C          30.7384    2.7015   -7.8398 C.2       6 UNK         0.5081 
     43 O          30.4961    1.5726   -8.2711 O.2       6 UNK        -0.5248 
     44 N          30.6944    3.8039   -8.6008 N.am      7 UNK        -0.4718 
     45 CA         30.4152    3.8387  -10.0409 C.3       7 UNK         0.0273 
     46 CB         30.5134    5.2873  -10.5438 C.3       7 UNK        -0.1935 
     47 C          29.0652    3.2211  -10.4419 C.2       7 UNK         0.5018 
     48 O          28.9751    2.6306  -11.5177 O.2       7 UNK        -0.5186 
     49 N          28.0640    3.3080   -9.5548 N.am      8 UNK        -0.4240 
     50 CA         26.7438    2.6949   -9.7277 C.3       8 UNK         0.0235 
     51 CB         25.7920    3.2322   -8.6480 C.3       8 UNK        -0.2000 
     52 C          26.7693    1.1536   -9.7233 C.2       8 UNK         0.4941 
     53 O          25.8800    0.5429  -10.3162 O.2       8 UNK        -0.5273 
     54 N          27.7854    0.5573   -9.0841 N.am      9 UNK        -0.4262 
     55 CA         28.0561   -0.8832   -9.0856 C.3       9 UNK         0.0264 
     56 CB         28.2350   -1.3492   -7.6319 C.3       9 UNK        -0.1955 
     57 C          29.2868   -1.2400   -9.9422 C.2       9 UNK         0.5031 
     58 O          29.6959   -2.4020   -9.9434 O.2       9 UNK        -0.5390 
     59 N          29.8547   -0.2486  -10.6482 N.am      10 UNK        -0.4204 
     60 CA         31.0748   -0.3075  -11.4601 C.3       10 UNK         0.0237 
     61 CB         30.8524   -1.1763  -12.7169 C.3       10 UNK        -0.1985 
     62 C          32.3301   -0.7123  -10.6576 C.2       10 UNK         0.4970 
     63 O          33.1909   -1.4138  -11.1932 O.2       10 UNK        -0.4914 
     64 N          32.4211   -0.2551   -9.4016 N.am      11 UNK        -0.4285 
     65 CA         33.5339   -0.5320   -8.4780 C.3       11 UNK         0.1007 
     66 C          34.2186    0.7467   -7.9171 C.2       11 UNK         0.5703 
     67 N          33.9981    1.9198   -8.4994 N.am      11 UNK        -0.7361 
     68 O          34.9852    0.6768   -6.9597 O.2       11 UNK        -0.4986 
     69 C69        33.1427   -1.5753   -7.3964 C.3       12 UNK        -0.0947 
     70 S70        31.8396   -1.0403   -6.2307 S.3       12 UNK        -0.2240 
     71 C71        32.7737   -0.9009   -4.6737 C.3       12 UNK         0.0194 
     72 H72        26.4283    0.1506    0.8994 H         1 UNK         0.0906 
     73 H73        25.1221   -0.5818    1.8283 H         1 UNK         0.0906 
     74 H74        26.7924   -0.7397    2.3794 H         1 UNK         0.0906 
     75 H75        27.1012   -1.0402   -0.8662 H         1 UNK         0.3140 
     76 H76        27.5316   -2.6145   -2.2902 H         1 UNK         0.1085 
     77 H77        28.4915   -3.8537   -0.0423 H         1 UNK         0.0836 
     78 H78        27.2833   -5.0075   -0.4393 H         1 UNK         0.0836 
     79 H79        31.4005   -4.9177   -2.0336 H         1 UNK         0.0731 
     80 H80        30.7312   -4.3994   -0.5149 H         1 UNK         0.0731 
     81 H81        32.0441   -3.3302   -3.7206 H         1 UNK         0.1312 
     82 H82        31.5681    0.8619   -2.9480 H         1 UNK         0.1406 
     83 H83        29.7352   -2.0099   -0.3560 H         1 UNK         0.1631 
     84 H84        30.5750    1.5472   -0.7663 H         1 UNK         0.0717 
     85 H85        29.8869    0.3484    0.2922 H         1 UNK         0.0717 
     86 H86        27.9546    2.9752   -2.7434 H         1 UNK         0.0934 
     87 H87        29.6240    2.4986   -2.6934 H         1 UNK         0.0934 
     88 H88        28.9817    0.4075   -4.0846 H         1 UNK         0.0739 
     89 H89        26.4731    1.8860   -4.6784 H         1 UNK         0.3093 
     90 H90        24.3540    0.0132   -4.2547 H         1 UNK         0.0818 
     91 H91        24.9231    1.7811   -5.9611 H         1 UNK         0.0819 
     92 H92        25.4987    0.5441   -7.0756 H         1 UNK         0.0819 
     93 H93        23.7934    0.6593   -6.6629 H         1 UNK         0.0819 
     94 H94        25.6528   -2.1749   -5.2485 H         1 UNK         0.3041 
     95 H95        22.9668   -4.0965   -6.6188 H         1 UNK         0.0784 
     96 H96        24.5407   -3.3497   -8.4115 H         1 UNK         0.0793 
     97 H97        25.9056   -3.5545   -7.3235 H         1 UNK         0.0793 
     98 H98        24.9519   -4.9507   -7.8200 H         1 UNK         0.0793 
     99 H99        25.4471   -4.5825   -5.1196 H         1 UNK         0.3024 
    100 H100       23.7029   -5.4608   -2.1249 H         1 UNK         0.1171 
    101 H101       25.4693   -7.0401   -4.0737 H         1 UNK         0.0786 
    102 H102       25.1429   -7.4515   -2.3902 H         1 UNK         0.0786 
    103 H103       23.8477   -7.4999   -3.5734 H         1 UNK         0.0786 
    104 H104       26.4809   -5.2948   -2.5737 H         1 UNK         0.2977 
    105 H105       30.8106    1.3614   -4.9480 H         1 UNK         0.3127 
    106 H106       32.1536    2.4564   -6.2884 H         1 UNK         0.0770 
    107 H107       31.9577    4.9098   -6.4492 H         1 UNK         0.0814 
    108 H108       31.5069    4.3970   -4.8394 H         1 UNK         0.0814 
    109 H109       30.2554    4.8494   -5.9885 H         1 UNK         0.0814 
    110 H110       30.9027    4.6896   -8.1624 H         1 UNK         0.2983 
    111 H111       31.1930    3.2533  -10.5359 H         1 UNK         0.0947 
    112 H112       30.3318    5.3411  -11.6184 H         1 UNK         0.0806 
    113 H113       31.5048    5.7042  -10.3650 H         1 UNK         0.0806 
    114 H114       29.7828    5.9348  -10.0573 H         1 UNK         0.0806 
    115 H115       28.2397    3.7778   -8.6770 H         1 UNK         0.3000 
    116 H116       26.3587    3.0038  -10.7020 H         1 UNK         0.0850 
    117 H117       25.6552    4.3095   -8.7421 H         1 UNK         0.0810 
    118 H118       26.1684    3.0305   -7.6454 H         1 UNK         0.0810 
    119 H119       24.8055    2.7732   -8.7286 H         1 UNK         0.0810 
    120 H120       28.4911    1.1336   -8.6358 H         1 UNK         0.3040 
    121 H121       27.2137   -1.4316   -9.5120 H         1 UNK         0.0766 
    122 H122       28.5273   -2.3985   -7.5763 H         1 UNK         0.0812 
    123 H123       27.3019   -1.2512   -7.0822 H         1 UNK         0.0812 
    124 H124       28.9964   -0.7679   -7.1113 H         1 UNK         0.0812 
    125 H125       29.4190    0.6637  -10.6011 H         1 UNK         0.3205 
    126 H126       31.2566    0.7134  -11.7988 H         1 UNK         0.0754 
    127 H127       31.7045   -1.1118  -13.3948 H         1 UNK         0.0769 
    128 H128       29.9736   -0.8499  -13.2731 H         1 UNK         0.0769 
    129 H129       30.7175   -2.2282  -12.4631 H         1 UNK         0.0769 
    130 H130       31.6708    0.3170   -9.0194 H         1 UNK         0.2981 
    131 H131       34.3413   -0.9938   -9.0479 H         1 UNK         0.0541 
    132 H132       33.4137    1.9833   -9.3162 H         1 UNK         0.3459 
    133 H133       34.4703    2.7374   -8.1481 H         1 UNK         0.3459 
    134 H134       34.0310   -1.8913   -6.8483 H         1 UNK         0.0612 
    135 H135       32.7800   -2.4785   -7.8893 H         1 UNK         0.0612 
    136 H136       33.2056    0.0986   -4.6036 H         1 UNK         0.0624 
    137 H137       33.6131   -1.5971   -4.6703 H         1 UNK         0.0624 
@<TRIPOS>BOND
     1    1    2 1    
     2    1   72 1    
     3    1   73 1    
     4    1   74 1    
     5    2    3 2    
     6    2    4 am   BACKBONE|DICT|INTERRES
     7    4    5 1    
     8    4   75 1    
     9    5    6 1    
    10    5   35 1    
    11    5   76 1    
    12    6    7 1    
    13    6   77 1    
    14    6   78 1    
    15    7    8 1    
    16    8    9 1    
    17    8   79 1    
    18    8   80 1    
    19    9   10 ar   
    20    9   14 ar   
    21   10   11 ar   
    22   10   81 1    
    23   11   12 ar   
    24   11   71 1    
    25   12   13 ar   
    26   12   82 1    
    27   13   14 ar   
    28   13   15 1    
    29   14   83 1    
    30   15   16 1    
    31   15   84 1    
    32   15   85 1    
    33   16   17 1    
    34   17   18 1    
    35   17   86 1    
    36   17   87 1    
    37   18   19 1    
    38   18   37 1    
    39   18   88 1    
    40   19   20 am   BACKBONE|DICT|INTERRES
    41   19   89 1    
    42   20   21 2    
    43   20   22 1    
    44   22   23 1    
    45   22   24 1    
    46   22   90 1    
    47   23   91 1    
    48   23   92 1    
    49   23   93 1    
    50   24   25 am   BACKBONE|DICT|INTERRES
    51   24   94 1    
    52   25   26 2    
    53   25   27 1    
    54   27   28 1    
    55   27   29 1    
    56   27   95 1    
    57   28   96 1    
    58   28   97 1    
    59   28   98 1    
    60   29   30 am   BACKBONE|DICT|INTERRES
    61   29   99 1    
    62   30   31 2    
    63   30   32 1    
    64   32   33 1    
    65   32   34 1    
    66   32  100 1    
    67   33  101 1    
    68   33  102 1    
    69   33  103 1    
    70   34   35 am   BACKBONE|DICT|INTERRES
    71   34  104 1    
    72   35   36 2    
    73   37   38 2    
    74   37   39 am   BACKBONE|DICT|INTERRES
    75   39   40 1    
    76   39  105 1    
    77   40   41 1    
    78   40   42 1    
    79   40  106 1    
    80   41  107 1    
    81   41  108 1    
    82   41  109 1    
    83   42   43 2    
    84   42   44 am   BACKBONE|DICT|INTERRES
    85   44   45 1    
    86   44  110 1    
    87   45   46 1    
    88   45   47 1    
    89   45  111 1    
    90   46  112 1    
    91   46  113 1    
    92   46  114 1    
    93   47   48 2    
    94   47   49 am   BACKBONE|DICT|INTERRES
    95   49   50 1    
    96   49  115 1    
    97   50   51 1    
    98   50   52 1    
    99   50  116 1    
   100   51  117 1    
   101   51  118 1    
   102   51  119 1    
   103   52   53 2    
   104   52   54 am   BACKBONE|DICT|INTERRES
   105   54   55 1    
   106   54  120 1    
   107   55   56 1    
   108   55   57 1    
   109   55  121 1    
   110   56  122 1    
   111   56  123 1    
   112   56  124 1    
   113   57   58 2    
   114   57   59 am   BACKBONE|DICT|INTERRES
   115   59   60 1    
   116   59  125 1    
   117   60   61 1    
   118   60   62 1    
   119   60  126 1    
   120   61  127 1    
   121   61  128 1    
   122   61  129 1    
   123   62   63 2    
   124   62   64 am   BACKBONE|DICT|INTERRES
   125   64   65 1    
   126   64  130 1    
   127   65   66 1    
   128   65   69 1    
   129   65  131 1    
   130   66   67 am   BACKBONE|DICT|INTERRES
   131   66   68 2    
   132   67  132 1    
   133   67  133 1    
   134   69   70 1    
   135   69  134 1    
   136   69  135 1    
   137   70   71 1    
   138   71  136 1    
   139   71  137 1    
@<TRIPOS>SUBSTRUCTURE
     1 UNK         1 GROUP             0       ****    0 ROOT    
