@<TRIPOS>MOLECULE
3R137
137   139    1
SMALL
USER_CHARGES


@<TRIPOS>ATOM
      1 CA         27.6675   -2.0032    3.6303 C.3       0 UNK        -0.2020 
      2 C          27.3426   -1.6596    2.1841 C.2       0 UNK         0.4855 
      3 O          26.5799   -0.7255    1.9332 O.2       0 UNK        -0.5197 
      4 N          27.9224   -2.4001    1.2317 N.am      1 UNK        -0.4892 
      5 CA         27.6936   -2.2427   -0.2097 C.3       1 UNK         0.0835 
      6 C6         28.7637   -2.9844   -1.0503 C.3       12 UNK        -0.0855 
      7 S7         30.4675   -2.4598   -0.6542 S.3       12 UNK        -0.2931 
      8 C8         31.4478   -3.6056   -1.6771 C.3       12 UNK         0.0378 
      9 C9         31.4356   -3.1915   -3.1407 C.ar      12 UNK        -0.0802 
     10 C10        32.3756   -2.2750   -3.6198 C.ar      12 UNK        -0.0944 
     11 C11        32.3553   -1.8699   -4.9578 C.ar      12 UNK        -0.0787 
     12 C12        31.3698   -2.3711   -5.8146 C.ar      12 UNK        -0.0862 
     13 C13        30.4186   -3.2831   -5.3440 C.ar      12 UNK        -0.0733 
     14 C14        30.4762   -3.7107   -4.0134 C.ar      12 UNK        -0.0832 
     15 C15        29.3055   -3.7714   -6.2654 C.3       12 UNK         0.0240 
     16 S16        27.6410   -3.5880   -5.5321 S.3       12 UNK        -0.2522 
     17 C17        27.5949   -1.8062   -5.1400 C.3       12 UNK        -0.0967 
     18 CA         26.9061   -0.9824   -6.2490 C.3       5 UNK         0.0660 
     19 N          25.4927   -1.3466   -6.4051 N.am      5 UNK        -0.4015 
     20 C          24.6910   -0.9614   -7.4073 C.2       4 UNK         0.4946 
     21 O          25.0410   -0.2100   -8.3159 O.2       4 UNK        -0.5353 
     22 CA         23.2397   -1.4628   -7.3577 C.3       4 UNK         0.0277 
     23 CB         23.1562   -2.9390   -7.7790 C.3       4 UNK        -0.1981 
     24 N          22.6519   -1.2882   -6.0280 N.am      4 UNK        -0.4209 
     25 C          22.3532   -0.0967   -5.4890 C.2       3 UNK         0.4942 
     26 O          22.4362    0.9693   -6.0979 O.2       3 UNK        -0.5208 
     27 CA         21.9249   -0.0860   -4.0105 C.3       3 UNK         0.0250 
     28 CB         20.3974   -0.2093   -3.8904 C.3       3 UNK        -0.1990 
     29 N          22.5674   -1.1300   -3.2022 N.am      3 UNK        -0.4232 
     30 C          23.8865   -1.2197   -2.9839 C.2       2 UNK         0.4993 
     31 O          24.7178   -0.4378   -3.4541 O.2       2 UNK        -0.5286 
     32 CA         24.3634   -2.4120   -2.1499 C.3       2 UNK         0.0209 
     33 CB         24.4056   -3.6924   -3.0078 C.3       2 UNK        -0.1931 
     34 N          25.6934   -2.1091   -1.6266 N.am      2 UNK        -0.4546 
     35 C          26.2802   -2.7285   -0.5974 C.2       1 UNK         0.5154 
     36 O          25.7640   -3.6678    0.0159 O.2       1 UNK        -0.5181 
     37 C          27.1302    0.5239   -6.0099 C.2       5 UNK         0.5014 
     38 O          28.2187    1.0169   -6.3015 O.2       5 UNK        -0.5248 
     39 N          26.1112    1.2387   -5.5115 N.am      6 UNK        -0.4434 
     40 CA         26.1029    2.7002   -5.4073 C.3       6 UNK         0.0363 
     41 CB         24.8621    3.1511   -4.6212 C.3       6 UNK        -0.1936 
     42 C          26.1700    3.4044   -6.7781 C.2       6 UNK         0.5081 
     43 O          26.6923    4.5171   -6.8522 O.2       6 UNK        -0.5248 
     44 N          25.6658    2.7457   -7.8318 N.am      7 UNK        -0.4718 
     45 CA         25.8110    3.1689   -9.2240 C.3       7 UNK         0.0273 
     46 CB         24.4977    2.9109   -9.9820 C.3       7 UNK        -0.1935 
     47 C          26.9850    2.4290   -9.8819 C.2       7 UNK         0.5018 
     48 O          27.8832    3.0716  -10.4273 O.2       7 UNK        -0.5186 
     49 N          26.9786    1.0916   -9.7988 N.am      8 UNK        -0.4240 
     50 CA         27.9905    0.1913  -10.3554 C.3       8 UNK         0.0235 
     51 CB         27.3409   -1.1786  -10.6291 C.3       8 UNK        -0.2000 
     52 C          29.2245    0.0826   -9.4412 C.2       8 UNK         0.4941 
     53 O          29.5999   -1.0178   -9.0278 O.2       8 UNK        -0.5273 
     54 N          29.8506    1.2273   -9.1445 N.am      9 UNK        -0.4262 
     55 CA         31.0311    1.3575   -8.2872 C.3       9 UNK         0.0264 
     56 CB         31.1096    2.8040   -7.7660 C.3       9 UNK        -0.1955 
     57 C          32.3170    0.9143   -9.0118 C.2       9 UNK         0.5031 
     58 O          33.2562    1.7006   -9.1541 O.2       9 UNK        -0.5390 
     59 N          32.3383   -0.3442   -9.4667 N.am      10 UNK        -0.4204 
     60 CA         33.4001   -0.9808  -10.2532 C.3       10 UNK         0.0237 
     61 CB         32.8064   -2.2128  -10.9628 C.3       10 UNK        -0.1985 
     62 C          34.6664   -1.3182   -9.4352 C.2       10 UNK         0.4970 
     63 O          35.1752   -2.4372   -9.5247 O.2       10 UNK        -0.4914 
     64 N          35.1506   -0.3427   -8.6617 N.am      11 UNK        -0.4285 
     65 CA         36.3591   -0.4114   -7.8256 C.3       11 UNK         0.1007 
     66 C          37.4410    0.6268   -8.2429 C.2       11 UNK         0.5703 
     67 N          37.2449    1.4143   -9.2951 N.am      11 UNK        -0.7361 
     68 O          38.4936    0.7076   -7.6137 O.2       11 UNK        -0.4986 
     69 C69        36.0122   -0.3035   -6.3159 C.3       12 UNK        -0.0947 
     70 S70        34.9936   -1.6982   -5.7303 S.3       12 UNK        -0.2240 
     71 C71        33.3923   -0.8807   -5.4655 C.3       12 UNK         0.0194 
     72 H72        26.7574   -2.2746    4.1646 H         1 UNK         0.0906 
     73 H73        28.3658   -2.8367    3.7048 H         1 UNK         0.0906 
     74 H74        28.1126   -1.1430    4.1296 H         1 UNK         0.0906 
     75 H75        28.5360   -3.1589    1.4919 H         1 UNK         0.3140 
     76 H76        27.7582   -1.1764   -0.4392 H         1 UNK         0.1085 
     77 H77        28.5914   -2.8044   -2.1130 H         1 UNK         0.0836 
     78 H78        28.6882   -4.0639   -0.9028 H         1 UNK         0.0836 
     79 H79        32.4743   -3.6165   -1.3073 H         1 UNK         0.0731 
     80 H80        31.0729   -4.6236   -1.5600 H         1 UNK         0.0731 
     81 H81        33.1250   -1.8745   -2.9505 H         1 UNK         0.1312 
     82 H82        31.3348   -2.0420   -6.8445 H         1 UNK         0.1406 
     83 H83        29.7440   -4.4175   -3.6473 H         1 UNK         0.1631 
     84 H84        29.4753   -4.8224   -6.5017 H         1 UNK         0.0717 
     85 H85        29.3246   -3.2323   -7.2144 H         1 UNK         0.0717 
     86 H86        27.0732   -1.6793   -4.1909 H         1 UNK         0.0934 
     87 H87        28.6085   -1.4429   -4.9640 H         1 UNK         0.0934 
     88 H88        27.4013   -1.2140   -7.1944 H         1 UNK         0.0739 
     89 H89        25.1139   -1.9432   -5.6866 H         1 UNK         0.3093 
     90 H90        22.6590   -0.8721   -8.0699 H         1 UNK         0.0818 
     91 H91        22.1217   -3.2802   -7.8217 H         1 UNK         0.0819 
     92 H92        23.5838   -3.0837   -8.7723 H         1 UNK         0.0819 
     93 H93        23.6971   -3.5929   -7.0938 H         1 UNK         0.0819 
     94 H94        22.5222   -2.1161   -5.4655 H         1 UNK         0.3041 
     95 H95        22.2227    0.8798   -3.5959 H         1 UNK         0.0784 
     96 H96        19.8970    0.5715   -4.4652 H         1 UNK         0.0793 
     97 H97        20.0372   -1.1692   -4.2627 H         1 UNK         0.0793 
     98 H98        20.0706   -0.1053   -2.8555 H         1 UNK         0.0793 
     99 H99        21.9551   -1.8171   -2.7850 H         1 UNK         0.3024 
    100 H100       23.6746   -2.5476   -1.3126 H         1 UNK         0.1171 
    101 H101       23.4236   -3.9268   -3.4203 H         1 UNK         0.0786 
    102 H102       24.7168   -4.5563   -2.4205 H         1 UNK         0.0786 
    103 H103       25.0983   -3.5952   -3.8437 H         1 UNK         0.0786 
    104 H104       26.1323   -1.3103   -2.0689 H         1 UNK         0.2977 
    105 H105       25.2879    0.7455   -5.1862 H         1 UNK         0.3127 
    106 H106       26.9899    2.9952   -4.8427 H         1 UNK         0.0770 
    107 H107       23.9406    2.9251   -5.1575 H         1 UNK         0.0814 
    108 H108       24.8817    4.2283   -4.4509 H         1 UNK         0.0814 
    109 H109       24.8108    2.6680   -3.6451 H         1 UNK         0.0814 
    110 H110       25.2775    1.8214   -7.6827 H         1 UNK         0.2983 
    111 H111       26.0210    4.2398   -9.2735 H         1 UNK         0.0947 
    112 H112       24.5875    3.2050  -11.0286 H         1 UNK         0.0806 
    113 H113       23.6772    3.4866   -9.5533 H         1 UNK         0.0806 
    114 H114       24.2106    1.8589   -9.9616 H         1 UNK         0.0806 
    115 H115       26.2180    0.6404   -9.2897 H         1 UNK         0.3000 
    116 H116       28.3319    0.5936  -11.3116 H         1 UNK         0.0850 
    117 H117       28.0495   -1.8601  -11.1016 H         1 UNK         0.0810 
    118 H118       26.4854   -1.0858  -11.2982 H         1 UNK         0.0810 
    119 H119       26.9962   -1.6530   -9.7096 H         1 UNK         0.0810 
    120 H120       29.4711    2.0819   -9.5380 H         1 UNK         0.3040 
    121 H121       30.9030    0.7025   -7.4224 H         1 UNK         0.0766 
    122 H122       31.9559    2.9309   -7.0896 H         1 UNK         0.0812 
    123 H123       30.2097    3.0709   -7.2106 H         1 UNK         0.0812 
    124 H124       31.2284    3.5211   -8.5791 H         1 UNK         0.0812 
    125 H125       31.4977   -0.8945   -9.3061 H         1 UNK         0.3205 
    126 H126       33.7109   -0.2751  -11.0262 H         1 UNK         0.0754 
    127 H127       33.5393   -2.6796  -11.6225 H         1 UNK         0.0769 
    128 H128       31.9486   -1.9414  -11.5787 H         1 UNK         0.0769 
    129 H129       32.4793   -2.9691  -10.2479 H         1 UNK         0.0769 
    130 H130       34.6621    0.5492   -8.6742 H         1 UNK         0.2981 
    131 H131       36.8439   -1.3771   -7.9784 H         1 UNK         0.0541 
    132 H132       36.3978    1.3528   -9.8365 H         1 UNK         0.3459 
    133 H133       37.9612    2.0745   -9.5540 H         1 UNK         0.3459 
    134 H134       35.5093    0.6418   -6.1045 H         1 UNK         0.0612 
    135 H135       36.9208   -0.3045   -5.7111 H         1 UNK         0.0612 
    136 H136       33.5110   -0.0706   -4.7445 H         1 UNK         0.0624 
    137 H137       33.0640   -0.4236   -6.3991 H         1 UNK         0.0624 
@<TRIPOS>BOND
     1    1    2 1    
     2    1   72 1    
     3    1   73 1    
     4    1   74 1    
     5    2    3 2    
     6    2    4 am   BACKBONE|DICT|INTERRES
     7    4    5 1    
     8    4   75 1    
     9    5    6 1    
    10    5   35 1    
    11    5   76 1    
    12    6    7 1    
    13    6   77 1    
    14    6   78 1    
    15    7    8 1    
    16    8    9 1    
    17    8   79 1    
    18    8   80 1    
    19    9   10 ar   
    20    9   14 ar   
    21   10   11 ar   
    22   10   81 1    
    23   11   12 ar   
    24   11   71 1    
    25   12   13 ar   
    26   12   82 1    
    27   13   14 ar   
    28   13   15 1    
    29   14   83 1    
    30   15   16 1    
    31   15   84 1    
    32   15   85 1    
    33   16   17 1    
    34   17   18 1    
    35   17   86 1    
    36   17   87 1    
    37   18   19 1    
    38   18   37 1    
    39   18   88 1    
    40   19   20 am   BACKBONE|DICT|INTERRES
    41   19   89 1    
    42   20   21 2    
    43   20   22 1    
    44   22   23 1    
    45   22   24 1    
    46   22   90 1    
    47   23   91 1    
    48   23   92 1    
    49   23   93 1    
    50   24   25 am   BACKBONE|DICT|INTERRES
    51   24   94 1    
    52   25   26 2    
    53   25   27 1    
    54   27   28 1    
    55   27   29 1    
    56   27   95 1    
    57   28   96 1    
    58   28   97 1    
    59   28   98 1    
    60   29   30 am   BACKBONE|DICT|INTERRES
    61   29   99 1    
    62   30   31 2    
    63   30   32 1    
    64   32   33 1    
    65   32   34 1    
    66   32  100 1    
    67   33  101 1    
    68   33  102 1    
    69   33  103 1    
    70   34   35 am   BACKBONE|DICT|INTERRES
    71   34  104 1    
    72   35   36 2    
    73   37   38 2    
    74   37   39 am   BACKBONE|DICT|INTERRES
    75   39   40 1    
    76   39  105 1    
    77   40   41 1    
    78   40   42 1    
    79   40  106 1    
    80   41  107 1    
    81   41  108 1    
    82   41  109 1    
    83   42   43 2    
    84   42   44 am   BACKBONE|DICT|INTERRES
    85   44   45 1    
    86   44  110 1    
    87   45   46 1    
    88   45   47 1    
    89   45  111 1    
    90   46  112 1    
    91   46  113 1    
    92   46  114 1    
    93   47   48 2    
    94   47   49 am   BACKBONE|DICT|INTERRES
    95   49   50 1    
    96   49  115 1    
    97   50   51 1    
    98   50   52 1    
    99   50  116 1    
   100   51  117 1    
   101   51  118 1    
   102   51  119 1    
   103   52   53 2    
   104   52   54 am   BACKBONE|DICT|INTERRES
   105   54   55 1    
   106   54  120 1    
   107   55   56 1    
   108   55   57 1    
   109   55  121 1    
   110   56  122 1    
   111   56  123 1    
   112   56  124 1    
   113   57   58 2    
   114   57   59 am   BACKBONE|DICT|INTERRES
   115   59   60 1    
   116   59  125 1    
   117   60   61 1    
   118   60   62 1    
   119   60  126 1    
   120   61  127 1    
   121   61  128 1    
   122   61  129 1    
   123   62   63 2    
   124   62   64 am   BACKBONE|DICT|INTERRES
   125   64   65 1    
   126   64  130 1    
   127   65   66 1    
   128   65   69 1    
   129   65  131 1    
   130   66   67 am   BACKBONE|DICT|INTERRES
   131   66   68 2    
   132   67  132 1    
   133   67  133 1    
   134   69   70 1    
   135   69  134 1    
   136   69  135 1    
   137   70   71 1    
   138   71  136 1    
   139   71  137 1    
@<TRIPOS>SUBSTRUCTURE
     1 UNK         1 GROUP             0       ****    0 ROOT    
