@<TRIPOS>MOLECULE
3R137
137   139    1
SMALL
USER_CHARGES


@<TRIPOS>ATOM
      1 CA         25.5045   -6.4687   -4.3056 C.3       0 UNK        -0.2020 
      2 C          25.5108   -5.5883   -3.0654 C.2       0 UNK         0.4855 
      3 O          24.5703   -5.6401   -2.2725 O.2       0 UNK        -0.5197 
      4 N          26.5635   -4.7784   -2.8946 N.am      1 UNK        -0.4892 
      5 CA         26.7663   -3.8457   -1.7801 C.3       1 UNK         0.0835 
      6 C6         28.2181   -3.3064   -1.7407 C.3       12 UNK        -0.0855 
      7 S7         29.5282   -4.5752   -1.6412 S.3       12 UNK        -0.2931 
      8 C8         30.5909   -4.1853   -3.0882 C.3       12 UNK         0.0378 
      9 C9         30.9523   -2.7074   -3.2826 C.ar      12 UNK        -0.0802 
     10 C10        31.2365   -2.2439   -4.5730 C.ar      12 UNK        -0.0944 
     11 C11        31.5022   -0.8905   -4.8029 C.ar      12 UNK        -0.0787 
     12 C12        31.4843    0.0056   -3.7327 C.ar      12 UNK        -0.0862 
     13 C13        31.1800   -0.4336   -2.4438 C.ar      12 UNK        -0.0733 
     14 C14        30.9649   -1.7954   -2.2179 C.ar      12 UNK        -0.0832 
     15 C15        31.0189    0.5670   -1.3059 C.3       12 UNK         0.0240 
     16 S16        29.7625    1.8513   -1.6598 S.3       12 UNK        -0.2522 
     17 C17        28.3171    0.8921   -2.2446 C.3       12 UNK        -0.0967 
     18 CA         28.1185    1.0068   -3.7819 C.3       5 UNK         0.0660 
     19 N          27.4997   -0.1924   -4.3538 N.am      5 UNK        -0.4015 
     20 C          27.6024   -0.5397   -5.6448 C.2       4 UNK         0.4946 
     21 O          28.2377    0.1026   -6.4830 O.2       4 UNK        -0.5353 
     22 CA         26.8633   -1.8069   -6.0984 C.3       4 UNK         0.0277 
     23 CB         27.7232   -3.0536   -5.8408 C.3       4 UNK        -0.1981 
     24 N          25.5297   -1.9852   -5.5153 N.am      4 UNK        -0.4209 
     25 C          24.4959   -1.1526   -5.7104 C.2       3 UNK         0.4942 
     26 O          24.5920   -0.0632   -6.2724 O.2       3 UNK        -0.5208 
     27 CA         23.1238   -1.6197   -5.2014 C.3       3 UNK         0.0250 
     28 CB         22.5701   -2.7526   -6.0819 C.3       3 UNK        -0.1990 
     29 N          23.1910   -2.0631   -3.8107 N.am      3 UNK        -0.4232 
     30 C          23.1669   -1.2344   -2.7586 C.2       2 UNK         0.4993 
     31 O          22.9705   -0.0217   -2.8377 O.2       2 UNK        -0.5286 
     32 CA         23.4600   -1.8658   -1.3867 C.3       2 UNK         0.0209 
     33 CB         22.1847   -2.4748   -0.7820 C.3       2 UNK        -0.1931 
     34 N          24.5215   -2.8808   -1.4236 N.am      2 UNK        -0.4546 
     35 C          25.7737   -2.6629   -1.8468 C.2       1 UNK         0.5154 
     36 O          26.1485   -1.5843   -2.3129 O.2       1 UNK        -0.5181 
     37 C          27.3639    2.2889   -4.1882 C.2       5 UNK         0.5014 
     38 O          27.9981    3.3283   -4.3733 O.2       5 UNK        -0.5248 
     39 N          26.0359    2.1944   -4.3568 N.am      6 UNK        -0.4434 
     40 CA         25.1906    3.2873   -4.8427 C.3       6 UNK         0.0363 
     41 CB         23.7146    2.9712   -4.5520 C.3       6 UNK        -0.1936 
     42 C          25.4092    3.5633   -6.3397 C.2       6 UNK         0.5081 
     43 O          25.5032    4.7252   -6.7360 O.2       6 UNK        -0.5248 
     44 N          25.4989    2.4926   -7.1398 N.am      7 UNK        -0.4718 
     45 CA         25.7446    2.5473   -8.5824 C.3       7 UNK         0.0273 
     46 CB         25.3446    1.1989   -9.2042 C.3       7 UNK        -0.1935 
     47 C          27.2004    2.8819   -8.9516 C.2       7 UNK         0.5018 
     48 O          27.4327    3.3416  -10.0702 O.2       7 UNK        -0.5186 
     49 N          28.1411    2.6144   -8.0312 N.am      8 UNK        -0.4240 
     50 CA         29.5988    2.6322   -8.2121 C.3       8 UNK         0.0235 
     51 CB         30.1178    4.0540   -8.5140 C.3       8 UNK        -0.2000 
     52 C          30.0241    1.5864   -9.2607 C.2       8 UNK         0.4941 
     53 O          30.6707    1.9218  -10.2560 O.2       8 UNK        -0.5273 
     54 N          29.5876    0.3386   -9.0393 N.am      9 UNK        -0.4262 
     55 CA         29.6289   -0.7789   -9.9880 C.3       9 UNK         0.0264 
     56 CB         28.6473   -1.8636   -9.5099 C.3       9 UNK        -0.1955 
     57 C          31.0381   -1.3430  -10.2700 C.2       9 UNK         0.5031 
     58 O          31.2983   -2.5151   -9.9923 O.2       9 UNK        -0.5390 
     59 N          31.9079   -0.5036  -10.8476 N.am      10 UNK        -0.4204 
     60 CA         33.2254   -0.8179  -11.4232 C.3       10 UNK         0.0237 
     61 CB         33.0629   -1.7081  -12.6745 C.3       10 UNK        -0.1985 
     62 C          34.2624   -1.3867  -10.4312 C.2       10 UNK         0.4970 
     63 O          35.2080   -2.0550  -10.8544 O.2       10 UNK        -0.4914 
     64 N          34.0859   -1.0993   -9.1381 N.am      11 UNK        -0.4285 
     65 CA         35.0327   -1.4135   -8.0602 C.3       11 UNK         0.1007 
     66 C          36.3471   -0.5845   -8.1390 C.2       11 UNK         0.5703 
     67 N          37.4210   -1.0715   -7.5312 N.am      11 UNK        -0.7361 
     68 O          36.4009    0.4986   -8.7204 O.2       11 UNK        -0.4986 
     69 C69        34.3558   -1.3104   -6.6667 C.3       12 UNK        -0.0947 
     70 S70        33.4412    0.2509   -6.4131 S.3       12 UNK        -0.2240 
     71 C71        31.7436   -0.3677   -6.2093 C.3       12 UNK         0.0194 
     72 H72        26.3942   -6.3217   -4.9176 H         1 UNK         0.0906 
     73 H73        25.4613   -7.5188   -4.0180 H         1 UNK         0.0906 
     74 H74        24.6308   -6.2478   -4.9182 H         1 UNK         0.0906 
     75 H75        27.3267   -4.8247   -3.5529 H         1 UNK         0.3140 
     76 H76        26.5818   -4.3829   -0.8470 H         1 UNK         0.1085 
     77 H77        28.4007   -2.6814   -2.6143 H         1 UNK         0.0836 
     78 H78        28.3431   -2.6495   -0.8774 H         1 UNK         0.0836 
     79 H79        30.0822   -4.5539   -3.9803 H         1 UNK         0.0731 
     80 H80        31.5143   -4.7595   -3.0039 H         1 UNK         0.0731 
     81 H81        31.2272   -2.9342   -5.4055 H         1 UNK         0.1312 
     82 H82        31.6571    1.0580   -3.9128 H         1 UNK         0.1406 
     83 H83        30.7497   -2.1338   -1.2145 H         1 UNK         0.1631 
     84 H84        31.9779    1.0512   -1.1173 H         1 UNK         0.0717 
     85 H85        30.7421    0.0598   -0.3804 H         1 UNK         0.0717 
     86 H86        28.4641   -0.1493   -1.9570 H         1 UNK         0.0934 
     87 H87        27.4256    1.2135   -1.7024 H         1 UNK         0.0934 
     88 H88        29.1035    1.0872   -4.2425 H         1 UNK         0.0739 
     89 H89        26.9509   -0.7668   -3.7154 H         1 UNK         0.3093 
     90 H90        26.7214   -1.7185   -7.1769 H         1 UNK         0.0818 
     91 H91        27.8829   -3.2177   -4.7782 H         1 UNK         0.0819 
     92 H92        27.2658   -3.9492   -6.2615 H         1 UNK         0.0819 
     93 H93        28.7087   -2.9504   -6.2959 H         1 UNK         0.0819 
     94 H94        25.3635   -2.8463   -5.0194 H         1 UNK         0.3041 
     95 H95        22.4362   -0.7737   -5.2740 H         1 UNK         0.0784 
     96 H96        22.5139   -2.4412   -7.1261 H         1 UNK         0.0793 
     97 H97        23.1918   -3.6477   -6.0415 H         1 UNK         0.0793 
     98 H98        21.5620   -3.0326   -5.7753 H         1 UNK         0.0793 
     99 H99        23.3417   -3.0464   -3.6385 H         1 UNK         0.3024 
    100 H100       23.8006   -1.0610   -0.7313 H         1 UNK         0.1171 
    101 H101       21.3834   -1.7357   -0.7347 H         1 UNK         0.0786 
    102 H102       22.3576   -2.8277    0.2349 H         1 UNK         0.0786 
    103 H103       21.8187   -3.3164   -1.3716 H         1 UNK         0.0786 
    104 H104       24.2702   -3.8278   -1.1632 H         1 UNK         0.2977 
    105 H105       25.5876    1.2995   -4.2190 H         1 UNK         0.3127 
    106 H106       25.4553    4.1942   -4.2944 H         1 UNK         0.0770 
    107 H107       23.3845    2.0630   -5.0575 H         1 UNK         0.0814 
    108 H108       23.0690    3.7838   -4.8875 H         1 UNK         0.0814 
    109 H109       23.5403    2.8384   -3.4841 H         1 UNK         0.0814 
    110 H110       25.3308    1.5692   -6.7433 H         1 UNK         0.2983 
    111 H111       25.1100    3.3262   -9.0112 H         1 UNK         0.0947 
    112 H112       25.4891    1.2058  -10.2855 H         1 UNK         0.0806 
    113 H113       24.2945    0.9724   -9.0183 H         1 UNK         0.0806 
    114 H114       25.9394    0.3790   -8.7993 H         1 UNK         0.0806 
    115 H115       27.8247    2.1792   -7.1733 H         1 UNK         0.3000 
    116 H116       30.0294    2.3243   -7.2593 H         1 UNK         0.0850 
    117 H117       31.2081    4.0703   -8.5364 H         1 UNK         0.0810 
    118 H118       29.7974    4.7620   -7.7497 H         1 UNK         0.0810 
    119 H119       29.7703    4.4221   -9.4796 H         1 UNK         0.0810 
    120 H120       29.0832    0.1716   -8.1703 H         1 UNK         0.3040 
    121 H121       29.2522   -0.4071  -10.9434 H         1 UNK         0.0766 
    122 H122       27.6345   -1.4713   -9.4222 H         1 UNK         0.0812 
    123 H123       28.9417   -2.2679   -8.5420 H         1 UNK         0.0812 
    124 H124       28.6083   -2.6965  -10.2133 H         1 UNK         0.0812 
    125 H125       31.6021    0.4661  -10.9295 H         1 UNK         0.3205 
    126 H126       33.6361    0.1368  -11.7549 H         1 UNK         0.0754 
    127 H127       34.0109   -1.8280  -13.2005 H         1 UNK         0.0769 
    128 H128       32.3574   -1.2729  -13.3823 H         1 UNK         0.0769 
    129 H129       32.7060   -2.7056  -12.4152 H         1 UNK         0.0769 
    130 H130       33.3031   -0.5212   -8.8745 H         1 UNK         0.2981 
    131 H131       35.3235   -2.4570   -8.1975 H         1 UNK         0.0541 
    132 H132       37.3910   -1.9539   -7.0445 H         1 UNK         0.3459 
    133 H133       38.2807   -0.5459   -7.5619 H         1 UNK         0.3459 
    134 H134       33.6704   -2.1500   -6.5433 H         1 UNK         0.0612 
    135 H135       35.0862   -1.4187   -5.8630 H         1 UNK         0.0612 
    136 H136       31.5262   -1.1272   -6.9622 H         1 UNK         0.0624 
    137 H137       31.0500    0.4509   -6.3944 H         1 UNK         0.0624 
@<TRIPOS>BOND
     1    1    2 1    
     2    1   72 1    
     3    1   73 1    
     4    1   74 1    
     5    2    3 2    
     6    2    4 am   BACKBONE|DICT|INTERRES
     7    4    5 1    
     8    4   75 1    
     9    5    6 1    
    10    5   35 1    
    11    5   76 1    
    12    6    7 1    
    13    6   77 1    
    14    6   78 1    
    15    7    8 1    
    16    8    9 1    
    17    8   79 1    
    18    8   80 1    
    19    9   10 ar   
    20    9   14 ar   
    21   10   11 ar   
    22   10   81 1    
    23   11   12 ar   
    24   11   71 1    
    25   12   13 ar   
    26   12   82 1    
    27   13   14 ar   
    28   13   15 1    
    29   14   83 1    
    30   15   16 1    
    31   15   84 1    
    32   15   85 1    
    33   16   17 1    
    34   17   18 1    
    35   17   86 1    
    36   17   87 1    
    37   18   19 1    
    38   18   37 1    
    39   18   88 1    
    40   19   20 am   BACKBONE|DICT|INTERRES
    41   19   89 1    
    42   20   21 2    
    43   20   22 1    
    44   22   23 1    
    45   22   24 1    
    46   22   90 1    
    47   23   91 1    
    48   23   92 1    
    49   23   93 1    
    50   24   25 am   BACKBONE|DICT|INTERRES
    51   24   94 1    
    52   25   26 2    
    53   25   27 1    
    54   27   28 1    
    55   27   29 1    
    56   27   95 1    
    57   28   96 1    
    58   28   97 1    
    59   28   98 1    
    60   29   30 am   BACKBONE|DICT|INTERRES
    61   29   99 1    
    62   30   31 2    
    63   30   32 1    
    64   32   33 1    
    65   32   34 1    
    66   32  100 1    
    67   33  101 1    
    68   33  102 1    
    69   33  103 1    
    70   34   35 am   BACKBONE|DICT|INTERRES
    71   34  104 1    
    72   35   36 2    
    73   37   38 2    
    74   37   39 am   BACKBONE|DICT|INTERRES
    75   39   40 1    
    76   39  105 1    
    77   40   41 1    
    78   40   42 1    
    79   40  106 1    
    80   41  107 1    
    81   41  108 1    
    82   41  109 1    
    83   42   43 2    
    84   42   44 am   BACKBONE|DICT|INTERRES
    85   44   45 1    
    86   44  110 1    
    87   45   46 1    
    88   45   47 1    
    89   45  111 1    
    90   46  112 1    
    91   46  113 1    
    92   46  114 1    
    93   47   48 2    
    94   47   49 am   BACKBONE|DICT|INTERRES
    95   49   50 1    
    96   49  115 1    
    97   50   51 1    
    98   50   52 1    
    99   50  116 1    
   100   51  117 1    
   101   51  118 1    
   102   51  119 1    
   103   52   53 2    
   104   52   54 am   BACKBONE|DICT|INTERRES
   105   54   55 1    
   106   54  120 1    
   107   55   56 1    
   108   55   57 1    
   109   55  121 1    
   110   56  122 1    
   111   56  123 1    
   112   56  124 1    
   113   57   58 2    
   114   57   59 am   BACKBONE|DICT|INTERRES
   115   59   60 1    
   116   59  125 1    
   117   60   61 1    
   118   60   62 1    
   119   60  126 1    
   120   61  127 1    
   121   61  128 1    
   122   61  129 1    
   123   62   63 2    
   124   62   64 am   BACKBONE|DICT|INTERRES
   125   64   65 1    
   126   64  130 1    
   127   65   66 1    
   128   65   69 1    
   129   65  131 1    
   130   66   67 am   BACKBONE|DICT|INTERRES
   131   66   68 2    
   132   67  132 1    
   133   67  133 1    
   134   69   70 1    
   135   69  134 1    
   136   69  135 1    
   137   70   71 1    
   138   71  136 1    
   139   71  137 1    
@<TRIPOS>SUBSTRUCTURE
     1 UNK         1 GROUP             0       ****    0 ROOT    
