@<TRIPOS>MOLECULE
3R137
137   139    1
SMALL
USER_CHARGES


@<TRIPOS>ATOM
      1 CA         27.6419   -1.6207    2.2393 C.3       0 UNK        -0.2020 
      2 C          26.9295   -2.8496    1.6802 C.2       0 UNK         0.4855 
      3 O          26.4046   -3.6463    2.4554 O.2       0 UNK        -0.5197 
      4 N          26.8827   -3.0568    0.3560 N.am      1 UNK        -0.4892 
      5 CA         27.4309   -2.1953   -0.7047 C.3       1 UNK         0.0835 
      6 C6         27.5819   -2.9630   -2.0414 C.3       12 UNK        -0.0855 
      7 S7         28.7192   -4.3792   -1.8790 S.3       12 UNK        -0.2931 
      8 C8         30.3132   -3.6271   -2.3657 C.3       12 UNK         0.0378 
      9 C9         30.7219   -3.7905   -3.8327 C.ar      12 UNK        -0.0802 
     10 C10        31.8719   -3.1241   -4.2697 C.ar      12 UNK        -0.0944 
     11 C11        32.3549   -3.3006   -5.5691 C.ar      12 UNK        -0.0787 
     12 C12        31.6632   -4.1342   -6.4522 C.ar      12 UNK        -0.0862 
     13 C13        30.5120   -4.8087   -6.0364 C.ar      12 UNK        -0.0733 
     14 C14        30.0447   -4.6300   -4.7295 C.ar      12 UNK        -0.0832 
     15 C15        29.8228   -5.7921   -6.9755 C.3       12 UNK         0.0240 
     16 S16        28.7953   -4.9729   -8.2349 S.3       12 UNK        -0.2522 
     17 C17        27.3779   -4.4073   -7.2346 C.3       12 UNK        -0.0967 
     18 CA         26.7490   -3.0887   -7.7583 C.3       5 UNK         0.0660 
     19 N          25.4478   -2.7804   -7.1535 N.am      5 UNK        -0.4015 
     20 C          25.1848   -2.6064   -5.8518 C.2       4 UNK         0.4946 
     21 O          26.0050   -2.7849   -4.9483 O.2       4 UNK        -0.5353 
     22 CA         23.7905   -2.0638   -5.5012 C.3       4 UNK         0.0277 
     23 CB         23.0067   -3.0808   -4.6560 C.3       4 UNK        -0.1981 
     24 N          23.8849   -0.7992   -4.7678 N.am      4 UNK        -0.4209 
     25 C          24.5523    0.2945   -5.1594 C.2       3 UNK         0.4942 
     26 O          25.1207    0.3915   -6.2471 O.2       3 UNK        -0.5208 
     27 CA         24.6327    1.4785   -4.1795 C.3       3 UNK         0.0250 
     28 CB         23.4564    2.4511   -4.3887 C.3       3 UNK        -0.1990 
     29 N          24.7866    1.1041   -2.7653 N.am      3 UNK        -0.4232 
     30 C          23.9210    0.4883   -1.9488 C.2       2 UNK         0.4993 
     31 O          22.8089    0.0884   -2.2986 O.2       2 UNK        -0.5286 
     32 CA         24.4162    0.2246   -0.5162 C.3       2 UNK         0.0209 
     33 CB         23.2581   -0.0416    0.4636 C.3       2 UNK        -0.1931 
     34 N          25.3414   -0.9091   -0.4695 N.am      2 UNK        -0.4546 
     35 C          26.6086   -0.9052   -0.9080 C.2       1 UNK         0.5154 
     36 O          27.1438    0.0773   -1.4231 O.2       1 UNK        -0.5181 
     37 C          27.7204   -1.8907   -7.6814 C.2       5 UNK         0.5014 
     38 O          28.1794   -1.4247   -8.7245 O.2       5 UNK        -0.5248 
     39 N          28.0017   -1.4071   -6.4646 N.am      6 UNK        -0.4434 
     40 CA         29.0032   -0.3862   -6.1531 C.3       6 UNK         0.0363 
     41 CB         29.0254   -0.1265   -4.6393 C.3       6 UNK        -0.1936 
     42 C          28.8630    0.9354   -6.9255 C.2       6 UNK         0.5081 
     43 O          29.8846    1.4956   -7.3191 O.2       6 UNK        -0.5248 
     44 N          27.6313    1.4125   -7.1541 N.am      7 UNK        -0.4718 
     45 CA         27.3774    2.6418   -7.9146 C.3       7 UNK         0.0273 
     46 CB         25.9534    3.1491   -7.6379 C.3       7 UNK        -0.1935 
     47 C          27.6021    2.4691   -9.4260 C.2       7 UNK         0.5018 
     48 O          28.0110    3.4258  -10.0839 O.2       7 UNK        -0.5186 
     49 N          27.3459    1.2611   -9.9469 N.am      8 UNK        -0.4240 
     50 CA         27.5691    0.9030  -11.3495 C.3       8 UNK         0.0235 
     51 CB         26.6880   -0.3002  -11.7245 C.3       8 UNK        -0.2000 
     52 C          29.0507    0.6053  -11.6236 C.2       8 UNK         0.4941 
     53 O          29.5809    1.0424  -12.6452 O.2       8 UNK        -0.5273 
     54 N          29.6938   -0.1130  -10.6938 N.am      9 UNK        -0.4262 
     55 CA         31.1166   -0.4563  -10.7237 C.3       9 UNK         0.0264 
     56 CB         31.3501   -1.6403   -9.7717 C.3       9 UNK        -0.1955 
     57 C          32.0493    0.7232  -10.3796 C.2       9 UNK         0.5031 
     58 O          33.2481    0.6256  -10.6456 O.2       9 UNK        -0.5390 
     59 N          31.4911    1.8017   -9.8072 N.am      10 UNK        -0.4204 
     60 CA         32.1568    3.0213   -9.3315 C.3       10 UNK         0.0237 
     61 CB         32.8212    3.7910  -10.4934 C.3       10 UNK        -0.1985 
     62 C          33.1094    2.7440   -8.1522 C.2       10 UNK         0.4970 
     63 O          34.2304    3.2559   -8.1214 O.2       10 UNK        -0.4914 
     64 N          32.6304    1.9340   -7.2028 N.am      11 UNK        -0.4285 
     65 CA         33.3421    1.5279   -5.9819 C.3       11 UNK         0.1007 
     66 C          33.1280    2.4983   -4.7857 C.2       11 UNK         0.5703 
     67 N          32.2402    3.4824   -4.8744 N.am      11 UNK        -0.7361 
     68 O          33.7916    2.3641   -3.7604 O.2       11 UNK        -0.4986 
     69 C69        32.9978    0.0677   -5.5861 C.3       12 UNK        -0.0947 
     70 S70        33.3979   -1.1098   -6.9187 S.3       12 UNK        -0.2240 
     71 C71        33.6630   -2.6515   -5.9980 C.3       12 UNK         0.0194 
     72 H72        27.1148   -0.7060    1.9712 H         1 UNK         0.0906 
     73 H73        27.6828   -1.6689    3.3273 H         1 UNK         0.0906 
     74 H74        28.6676   -1.5590    1.8782 H         1 UNK         0.0906 
     75 H75        26.4417   -3.9033    0.0245 H         1 UNK         0.3140 
     76 H76        28.4295   -1.8741   -0.4034 H         1 UNK         0.1085 
     77 H77        26.6136   -3.3398   -2.3765 H         1 UNK         0.0836 
     78 H78        27.9382   -2.3105   -2.8394 H         1 UNK         0.0836 
     79 H79        30.3087   -2.5680   -2.1035 H         1 UNK         0.0731 
     80 H80        31.0905   -4.0852   -1.7525 H         1 UNK         0.0731 
     81 H81        32.4174   -2.4919   -3.5821 H         1 UNK         0.1312 
     82 H82        32.0386   -4.2827   -7.4557 H         1 UNK         0.1406 
     83 H83        29.1697   -5.1775   -4.4105 H         1 UNK         0.1631 
     84 H84        29.2095   -6.4993   -6.4147 H         1 UNK         0.0717 
     85 H85        30.5806   -6.3905   -7.4833 H         1 UNK         0.0717 
     86 H86        26.6306   -5.2020   -7.2446 H         1 UNK         0.0934 
     87 H87        27.6832   -4.3006   -6.1940 H         1 UNK         0.0934 
     88 H88        26.5330   -3.2365   -8.8180 H         1 UNK         0.0739 
     89 H89        24.7144   -2.5671   -7.8148 H         1 UNK         0.3093 
     90 H90        23.2342   -1.8713   -6.4206 H         1 UNK         0.0818 
     91 H91        22.0007   -2.7231   -4.4353 H         1 UNK         0.0819 
     92 H92        22.9054   -4.0310   -5.1819 H         1 UNK         0.0819 
     93 H93        23.5054   -3.2841   -3.7071 H         1 UNK         0.0819 
     94 H94        23.4292   -0.7538   -3.8603 H         1 UNK         0.3041 
     95 H95        25.5476    2.0172   -4.4317 H         1 UNK         0.0784 
     96 H96        23.4163    2.7944   -5.4234 H         1 UNK         0.0793 
     97 H97        22.4957    1.9858   -4.1663 H         1 UNK         0.0793 
     98 H98        23.5557    3.3346   -3.7581 H         1 UNK         0.0793 
     99 H99        25.7168    1.2537   -2.3867 H         1 UNK         0.3024 
    100 H100       24.9401    1.1210   -0.1755 H         1 UNK         0.1171 
    101 H101       22.7101   -0.9497    0.2087 H         1 UNK         0.0786 
    102 H102       22.5438    0.7829    0.4558 H         1 UNK         0.0786 
    103 H103       23.6202   -0.1451    1.4867 H         1 UNK         0.0786 
    104 H104       24.9843   -1.7677   -0.0748 H         1 UNK         0.2977 
    105 H105       27.5116   -1.8328   -5.6820 H         1 UNK         0.3127 
    106 H106       29.9689   -0.8106   -6.4351 H         1 UNK         0.0770 
    107 H107       29.3816   -1.0029   -4.0997 H         1 UNK         0.0814 
    108 H108       28.0369    0.1317   -4.2572 H         1 UNK         0.0814 
    109 H109       29.6977    0.6953   -4.3880 H         1 UNK         0.0814 
    110 H110       26.8176    0.9039   -6.8119 H         1 UNK         0.2983 
    111 H111       28.0763    3.4066   -7.5677 H         1 UNK         0.0947 
    112 H112       25.7671    4.0895   -8.1583 H         1 UNK         0.0806 
    113 H113       25.7967    3.3321   -6.5753 H         1 UNK         0.0806 
    114 H114       25.1978    2.4377   -7.9731 H         1 UNK         0.0806 
    115 H115       27.0802    0.5140   -9.3189 H         1 UNK         0.3000 
    116 H116       27.2744    1.7461  -11.9786 H         1 UNK         0.0850 
    117 H117       26.8214   -0.5669  -12.7738 H         1 UNK         0.0810 
    118 H118       25.6309   -0.0770  -11.5795 H         1 UNK         0.0810 
    119 H119       26.9283   -1.1835  -11.1317 H         1 UNK         0.0810 
    120 H120       29.1545   -0.4909   -9.9144 H         1 UNK         0.3040 
    121 H121       31.3683   -0.7801  -11.7357 H         1 UNK         0.0766 
    122 H122       32.3994   -1.9379   -9.7619 H         1 UNK         0.0812 
    123 H123       30.7679   -2.5122  -10.0708 H         1 UNK         0.0812 
    124 H124       31.0680   -1.3916   -8.7480 H         1 UNK         0.0812 
    125 H125       30.5090    1.7337   -9.5749 H         1 UNK         0.3205 
    126 H126       31.3640    3.6565   -8.9333 H         1 UNK         0.0754 
    127 H127       33.1926    4.7596  -10.1567 H         1 UNK         0.0769 
    128 H128       32.1124    3.9784  -11.3000 H         1 UNK         0.0769 
    129 H129       33.6690    3.2470  -10.9109 H         1 UNK         0.0769 
    130 H130       31.6671    1.6131   -7.2845 H         1 UNK         0.2981 
    131 H131       34.4133    1.5572   -6.1897 H         1 UNK         0.0541 
    132 H132       31.6877    3.5964   -5.7087 H         1 UNK         0.3459 
    133 H133       32.1170    4.1086   -4.0947 H         1 UNK         0.3459 
    134 H134       31.9405   -0.0293   -5.3397 H         1 UNK         0.0612 
    135 H135       33.5515   -0.2225   -4.6915 H         1 UNK         0.0612 
    136 H136       34.2158   -3.3422   -6.6364 H         1 UNK         0.0624 
    137 H137       34.3044   -2.4622   -5.1360 H         1 UNK         0.0624 
@<TRIPOS>BOND
     1    1    2 1    
     2    1   72 1    
     3    1   73 1    
     4    1   74 1    
     5    2    3 2    
     6    2    4 am   BACKBONE|DICT|INTERRES
     7    4    5 1    
     8    4   75 1    
     9    5    6 1    
    10    5   35 1    
    11    5   76 1    
    12    6    7 1    
    13    6   77 1    
    14    6   78 1    
    15    7    8 1    
    16    8    9 1    
    17    8   79 1    
    18    8   80 1    
    19    9   10 ar   
    20    9   14 ar   
    21   10   11 ar   
    22   10   81 1    
    23   11   12 ar   
    24   11   71 1    
    25   12   13 ar   
    26   12   82 1    
    27   13   14 ar   
    28   13   15 1    
    29   14   83 1    
    30   15   16 1    
    31   15   84 1    
    32   15   85 1    
    33   16   17 1    
    34   17   18 1    
    35   17   86 1    
    36   17   87 1    
    37   18   19 1    
    38   18   37 1    
    39   18   88 1    
    40   19   20 am   BACKBONE|DICT|INTERRES
    41   19   89 1    
    42   20   21 2    
    43   20   22 1    
    44   22   23 1    
    45   22   24 1    
    46   22   90 1    
    47   23   91 1    
    48   23   92 1    
    49   23   93 1    
    50   24   25 am   BACKBONE|DICT|INTERRES
    51   24   94 1    
    52   25   26 2    
    53   25   27 1    
    54   27   28 1    
    55   27   29 1    
    56   27   95 1    
    57   28   96 1    
    58   28   97 1    
    59   28   98 1    
    60   29   30 am   BACKBONE|DICT|INTERRES
    61   29   99 1    
    62   30   31 2    
    63   30   32 1    
    64   32   33 1    
    65   32   34 1    
    66   32  100 1    
    67   33  101 1    
    68   33  102 1    
    69   33  103 1    
    70   34   35 am   BACKBONE|DICT|INTERRES
    71   34  104 1    
    72   35   36 2    
    73   37   38 2    
    74   37   39 am   BACKBONE|DICT|INTERRES
    75   39   40 1    
    76   39  105 1    
    77   40   41 1    
    78   40   42 1    
    79   40  106 1    
    80   41  107 1    
    81   41  108 1    
    82   41  109 1    
    83   42   43 2    
    84   42   44 am   BACKBONE|DICT|INTERRES
    85   44   45 1    
    86   44  110 1    
    87   45   46 1    
    88   45   47 1    
    89   45  111 1    
    90   46  112 1    
    91   46  113 1    
    92   46  114 1    
    93   47   48 2    
    94   47   49 am   BACKBONE|DICT|INTERRES
    95   49   50 1    
    96   49  115 1    
    97   50   51 1    
    98   50   52 1    
    99   50  116 1    
   100   51  117 1    
   101   51  118 1    
   102   51  119 1    
   103   52   53 2    
   104   52   54 am   BACKBONE|DICT|INTERRES
   105   54   55 1    
   106   54  120 1    
   107   55   56 1    
   108   55   57 1    
   109   55  121 1    
   110   56  122 1    
   111   56  123 1    
   112   56  124 1    
   113   57   58 2    
   114   57   59 am   BACKBONE|DICT|INTERRES
   115   59   60 1    
   116   59  125 1    
   117   60   61 1    
   118   60   62 1    
   119   60  126 1    
   120   61  127 1    
   121   61  128 1    
   122   61  129 1    
   123   62   63 2    
   124   62   64 am   BACKBONE|DICT|INTERRES
   125   64   65 1    
   126   64  130 1    
   127   65   66 1    
   128   65   69 1    
   129   65  131 1    
   130   66   67 am   BACKBONE|DICT|INTERRES
   131   66   68 2    
   132   67  132 1    
   133   67  133 1    
   134   69   70 1    
   135   69  134 1    
   136   69  135 1    
   137   70   71 1    
   138   71  136 1    
   139   71  137 1    
@<TRIPOS>SUBSTRUCTURE
     1 UNK         1 GROUP             0       ****    0 ROOT    
