@<TRIPOS>MOLECULE
3R137
137   139    1
SMALL
USER_CHARGES


@<TRIPOS>ATOM
      1 CA         28.9658    1.2278    1.5020 C.3       0 UNK        -0.2020 
      2 C          28.7701    0.1297    0.4676 C.2       0 UNK         0.4855 
      3 O          28.5053    0.4273   -0.6960 O.2       0 UNK        -0.5197 
      4 N          28.9059   -1.1364    0.8808 N.am      1 UNK        -0.4892 
      5 CA         28.6992   -2.3172    0.0388 C.3       1 UNK         0.0835 
      6 C6         29.3495   -3.5677    0.6906 C.3       12 UNK        -0.0855 
      7 S7         29.2758   -5.0964   -0.3109 S.3       12 UNK        -0.2931 
      8 C8         30.8815   -5.0771   -1.1717 C.3       12 UNK         0.0378 
      9 C9         30.8792   -4.0415   -2.2830 C.ar      12 UNK        -0.0802 
     10 C10        31.4236   -2.7724   -2.0666 C.ar      12 UNK        -0.0944 
     11 C11        31.3249   -1.7754   -3.0413 C.ar      12 UNK        -0.0787 
     12 C12        30.6998   -2.0818   -4.2568 C.ar      12 UNK        -0.0862 
     13 C13        30.2164   -3.3675   -4.5130 C.ar      12 UNK        -0.0733 
     14 C14        30.2969   -4.3422   -3.5172 C.ar      12 UNK        -0.0832 
     15 C15        29.6335   -3.7033   -5.8758 C.3       12 UNK         0.0240 
     16 S16        27.8145   -3.6562   -5.8732 S.3       12 UNK        -0.2522 
     17 C17        27.5019   -3.2355   -7.6244 C.3       12 UNK        -0.0967 
     18 CA         27.0291   -1.7788   -7.8677 C.3       5 UNK         0.0660 
     19 N          25.6289   -1.5660   -7.4747 N.am      5 UNK        -0.4015 
     20 C          24.9181   -0.4522   -7.7153 C.2       4 UNK         0.4946 
     21 O          25.4137    0.5869   -8.1492 O.2       4 UNK        -0.5353 
     22 CA         23.3989   -0.4820   -7.4737 C.3       4 UNK         0.0277 
     23 CB         22.6580   -0.3204   -8.8119 C.3       4 UNK        -0.1981 
     24 N          22.9345   -1.7137   -6.8292 N.am      4 UNK        -0.4209 
     25 C          22.8977   -1.9874   -5.5184 C.2       3 UNK         0.4942 
     26 O          22.4993   -3.0782   -5.1077 O.2       3 UNK        -0.5208 
     27 CA         23.3198   -0.9156   -4.4922 C.3       3 UNK         0.0250 
     28 CB         22.1070   -0.0722   -4.0637 C.3       3 UNK        -0.1990 
     29 N          23.8729   -1.5805   -3.3162 N.am      3 UNK        -0.4232 
     30 C          25.1639   -1.8932   -3.1688 C.2       2 UNK         0.4993 
     31 O          26.0599   -1.5050   -3.9241 O.2       2 UNK        -0.5286 
     32 CA         25.4827   -2.8437   -2.0101 C.3       2 UNK         0.0209 
     33 CB         25.3492   -4.3068   -2.4668 C.3       2 UNK        -0.1931 
     34 N          26.8450   -2.6222   -1.5382 N.am      2 UNK        -0.4546 
     35 C          27.1981   -2.5067   -0.2528 C.2       1 UNK         0.5154 
     36 O          26.4023   -2.5568    0.6896 O.2       1 UNK        -0.5181 
     37 C          28.0191   -0.7199   -7.3327 C.2       5 UNK         0.5014 
     38 O          28.9467   -0.3514   -8.0556 O.2       5 UNK        -0.5248 
     39 N          27.7824   -0.2031   -6.1182 N.am      6 UNK        -0.4434 
     40 CA         28.5567    0.8906   -5.5237 C.3       6 UNK         0.0363 
     41 CB         28.1327    1.0789   -4.0604 C.3       6 UNK        -0.1936 
     42 C          28.4875    2.2224   -6.2954 C.2       6 UNK         0.5081 
     43 O          29.3989    3.0373   -6.1543 O.2       6 UNK        -0.5248 
     44 N          27.4392    2.4169   -7.1057 N.am      7 UNK        -0.4718 
     45 CA         27.2938    3.5510   -8.0165 C.3       7 UNK         0.0273 
     46 CB         25.8673    4.1155   -7.9053 C.3       7 UNK        -0.1935 
     47 C          27.5996    3.1294   -9.4609 C.2       7 UNK         0.5018 
     48 O          28.3653    3.8132  -10.1393 O.2       7 UNK        -0.5186 
     49 N          26.9965    2.0176   -9.9058 N.am      8 UNK        -0.4240 
     50 CA         27.0310    1.5355  -11.2885 C.3       8 UNK         0.0235 
     51 CB         25.9617    0.4468  -11.4775 C.3       8 UNK        -0.2000 
     52 C          28.4078    1.0276  -11.7429 C.2       8 UNK         0.4941 
     53 O          28.8008    1.3056  -12.8766 O.2       8 UNK        -0.5273 
     54 N          29.1121    0.3020  -10.8642 N.am      9 UNK        -0.4262 
     55 CA         30.4599   -0.2209  -11.1111 C.3       9 UNK         0.0264 
     56 CB         30.5014   -1.7094  -10.7190 C.3       9 UNK        -0.1955 
     57 C          31.5332    0.5725  -10.3466 C.2       9 UNK         0.5031 
     58 O          32.7161    0.2580  -10.4871 O.2       9 UNK        -0.5390 
     59 N          31.1156    1.5543   -9.5301 N.am      10 UNK        -0.4204 
     60 CA         31.9399    2.4228   -8.6776 C.3       10 UNK         0.0237 
     61 CB         32.7301    3.4247   -9.5457 C.3       10 UNK        -0.1985 
     62 C          32.8421    1.6475   -7.6930 C.2       10 UNK         0.4970 
     63 O          33.9380    2.1125   -7.3743 O.2       10 UNK        -0.4914 
     64 N          32.3736    0.4684   -7.2590 N.am      11 UNK        -0.4285 
     65 CA         33.1119   -0.5138   -6.4447 C.3       11 UNK         0.1007 
     66 C          34.3153   -1.1868   -7.1758 C.2       11 UNK         0.5703 
     67 N          34.4390   -1.0895   -8.4953 N.am      11 UNK        -0.7361 
     68 O          35.1388   -1.8430   -6.5423 O.2       11 UNK        -0.4986 
     69 C69        33.4904    0.0054   -5.0230 C.3       12 UNK        -0.0947 
     70 S70        32.0943    0.7574   -4.1162 S.3       12 UNK        -0.2240 
     71 C71        31.8674   -0.3835   -2.7081 C.3       12 UNK         0.0194 
     72 H72        28.0571    1.8222    1.5934 H         1 UNK         0.0906 
     73 H73        29.2086    0.8254    2.4853 H         1 UNK         0.0906 
     74 H74        29.7762    1.8893    1.1968 H         1 UNK         0.0906 
     75 H75        29.0858   -1.3209    1.8576 H         1 UNK         0.3140 
     76 H76        29.1925   -2.1236   -0.9125 H         1 UNK         0.1085 
     77 H77        30.3941   -3.3588    0.9268 H         1 UNK         0.0836 
     78 H78        28.8710   -3.7794    1.6488 H         1 UNK         0.0836 
     79 H79        31.0701   -6.0659   -1.5926 H         1 UNK         0.0731 
     80 H80        31.6874   -4.8896   -0.4604 H         1 UNK         0.0731 
     81 H81        31.8803   -2.5430   -1.1132 H         1 UNK         0.1312 
     82 H82        30.5898   -1.3282   -5.0190 H         1 UNK         0.1406 
     83 H83        29.8901   -5.3285   -3.6965 H         1 UNK         0.1631 
     84 H84        29.9650   -4.6939   -6.1908 H         1 UNK         0.0717 
     85 H85        30.0241   -3.0031   -6.6159 H         1 UNK         0.0717 
     86 H86        28.3983   -3.4338   -8.2149 H         1 UNK         0.0934 
     87 H87        26.7577   -3.9345   -8.0094 H         1 UNK         0.0934 
     88 H88        27.0329   -1.6439   -8.9510 H         1 UNK         0.0739 
     89 H89        25.1544   -2.3643   -7.0796 H         1 UNK         0.3093 
     90 H90        23.1448    0.3839   -6.8611 H         1 UNK         0.0818 
     91 H91        21.5779   -0.2896   -8.6667 H         1 UNK         0.0819 
     92 H92        22.9403    0.6102   -9.3071 H         1 UNK         0.0819 
     93 H93        22.8816   -1.1352   -9.5018 H         1 UNK         0.0819 
     94 H94        22.6197   -2.4366   -7.4607 H         1 UNK         0.3041 
     95 H95        24.0793   -0.2534   -4.9091 H         1 UNK         0.0784 
     96 H96        21.6739    0.4568   -4.9133 H         1 UNK         0.0793 
     97 H97        21.3182   -0.6883   -3.6297 H         1 UNK         0.0793 
     98 H98        22.3889    0.6788   -3.3254 H         1 UNK         0.0793 
     99 H99        23.1978   -1.9978   -2.6913 H         1 UNK         0.3024 
    100 H100       24.7673   -2.6525   -1.2066 H         1 UNK         0.1171 
    101 H101       25.5496   -4.9972   -1.6472 H         1 UNK         0.0786 
    102 H102       24.3422   -4.5163   -2.8305 H         1 UNK         0.0786 
    103 H103       26.0434   -4.5388   -3.2761 H         1 UNK         0.0786 
    104 H104       27.5337   -2.4932   -2.2685 H         1 UNK         0.2977 
    105 H105       27.0453   -0.6066   -5.5466 H         1 UNK         0.3127 
    106 H106       29.6031    0.5911   -5.5395 H         1 UNK         0.0770 
    107 H107       27.0773    1.3392   -3.9751 H         1 UNK         0.0814 
    108 H108       28.7092    1.8722   -3.5826 H         1 UNK         0.0814 
    109 H109       28.3016    0.1699   -3.4821 H         1 UNK         0.0814 
    110 H110       26.7473    1.6791   -7.1940 H         1 UNK         0.2983 
    111 H111       27.9906    4.3489   -7.7494 H         1 UNK         0.0947 
    112 H112       25.7268    4.9574   -8.5845 H         1 UNK         0.0806 
    113 H113       25.6650    4.4762   -6.8968 H         1 UNK         0.0806 
    114 H114       25.1107    3.3686   -8.1494 H         1 UNK         0.0806 
    115 H115       26.3823    1.5125   -9.2668 H         1 UNK         0.3000 
    116 H116       26.7679    2.3774  -11.9328 H         1 UNK         0.0850 
    117 H117       25.9360    0.0996  -12.5114 H         1 UNK         0.0810 
    118 H118       24.9668    0.8227  -11.2376 H         1 UNK         0.0810 
    119 H119       26.1503   -0.4216  -10.8465 H         1 UNK         0.0810 
    120 H120       28.7357    0.1253   -9.9370 H         1 UNK         0.3040 
    121 H121       30.7086   -0.1487  -12.1717 H         1 UNK         0.0766 
    122 H122       30.3473   -1.8572   -9.6503 H         1 UNK         0.0812 
    123 H123       31.4674   -2.1505  -10.9685 H         1 UNK         0.0812 
    124 H124       29.7400   -2.2806  -11.2501 H         1 UNK         0.0812 
    125 H125       30.1200    1.7168   -9.4818 H         1 UNK         0.3205 
    126 H126       31.2464    2.9975   -8.0634 H         1 UNK         0.0754 
    127 H127       33.4844    2.9240  -10.1538 H         1 UNK         0.0769 
    128 H128       32.0689    3.9741  -10.2161 H         1 UNK         0.0769 
    129 H129       33.2450    4.1609   -8.9272 H         1 UNK         0.0769 
    130 H130       31.4651    0.1718   -7.5869 H         1 UNK         0.2981 
    131 H131       32.4151   -1.3386   -6.3115 H         1 UNK         0.0541 
    132 H132       33.7795   -0.5578   -9.0551 H         1 UNK         0.3459 
    133 H133       35.2178   -1.5427   -8.9452 H         1 UNK         0.3459 
    134 H134       33.8966   -0.8092   -4.4212 H         1 UNK         0.0612 
    135 H135       34.2842    0.7506   -5.0891 H         1 UNK         0.0612 
    136 H136       32.8202   -0.4756   -2.1845 H         1 UNK         0.0624 
    137 H137       31.1754    0.0865   -2.0078 H         1 UNK         0.0624 
@<TRIPOS>BOND
     1    1    2 1    
     2    1   72 1    
     3    1   73 1    
     4    1   74 1    
     5    2    3 2    
     6    2    4 am   BACKBONE|DICT|INTERRES
     7    4    5 1    
     8    4   75 1    
     9    5    6 1    
    10    5   35 1    
    11    5   76 1    
    12    6    7 1    
    13    6   77 1    
    14    6   78 1    
    15    7    8 1    
    16    8    9 1    
    17    8   79 1    
    18    8   80 1    
    19    9   10 ar   
    20    9   14 ar   
    21   10   11 ar   
    22   10   81 1    
    23   11   12 ar   
    24   11   71 1    
    25   12   13 ar   
    26   12   82 1    
    27   13   14 ar   
    28   13   15 1    
    29   14   83 1    
    30   15   16 1    
    31   15   84 1    
    32   15   85 1    
    33   16   17 1    
    34   17   18 1    
    35   17   86 1    
    36   17   87 1    
    37   18   19 1    
    38   18   37 1    
    39   18   88 1    
    40   19   20 am   BACKBONE|DICT|INTERRES
    41   19   89 1    
    42   20   21 2    
    43   20   22 1    
    44   22   23 1    
    45   22   24 1    
    46   22   90 1    
    47   23   91 1    
    48   23   92 1    
    49   23   93 1    
    50   24   25 am   BACKBONE|DICT|INTERRES
    51   24   94 1    
    52   25   26 2    
    53   25   27 1    
    54   27   28 1    
    55   27   29 1    
    56   27   95 1    
    57   28   96 1    
    58   28   97 1    
    59   28   98 1    
    60   29   30 am   BACKBONE|DICT|INTERRES
    61   29   99 1    
    62   30   31 2    
    63   30   32 1    
    64   32   33 1    
    65   32   34 1    
    66   32  100 1    
    67   33  101 1    
    68   33  102 1    
    69   33  103 1    
    70   34   35 am   BACKBONE|DICT|INTERRES
    71   34  104 1    
    72   35   36 2    
    73   37   38 2    
    74   37   39 am   BACKBONE|DICT|INTERRES
    75   39   40 1    
    76   39  105 1    
    77   40   41 1    
    78   40   42 1    
    79   40  106 1    
    80   41  107 1    
    81   41  108 1    
    82   41  109 1    
    83   42   43 2    
    84   42   44 am   BACKBONE|DICT|INTERRES
    85   44   45 1    
    86   44  110 1    
    87   45   46 1    
    88   45   47 1    
    89   45  111 1    
    90   46  112 1    
    91   46  113 1    
    92   46  114 1    
    93   47   48 2    
    94   47   49 am   BACKBONE|DICT|INTERRES
    95   49   50 1    
    96   49  115 1    
    97   50   51 1    
    98   50   52 1    
    99   50  116 1    
   100   51  117 1    
   101   51  118 1    
   102   51  119 1    
   103   52   53 2    
   104   52   54 am   BACKBONE|DICT|INTERRES
   105   54   55 1    
   106   54  120 1    
   107   55   56 1    
   108   55   57 1    
   109   55  121 1    
   110   56  122 1    
   111   56  123 1    
   112   56  124 1    
   113   57   58 2    
   114   57   59 am   BACKBONE|DICT|INTERRES
   115   59   60 1    
   116   59  125 1    
   117   60   61 1    
   118   60   62 1    
   119   60  126 1    
   120   61  127 1    
   121   61  128 1    
   122   61  129 1    
   123   62   63 2    
   124   62   64 am   BACKBONE|DICT|INTERRES
   125   64   65 1    
   126   64  130 1    
   127   65   66 1    
   128   65   69 1    
   129   65  131 1    
   130   66   67 am   BACKBONE|DICT|INTERRES
   131   66   68 2    
   132   67  132 1    
   133   67  133 1    
   134   69   70 1    
   135   69  134 1    
   136   69  135 1    
   137   70   71 1    
   138   71  136 1    
   139   71  137 1    
@<TRIPOS>SUBSTRUCTURE
     1 UNK         1 GROUP             0       ****    0 ROOT    
