@<TRIPOS>MOLECULE
3R137
137   139    1
SMALL
USER_CHARGES


@<TRIPOS>ATOM
      1 CA         30.7016    0.6335   -1.5737 C.3       0 UNK        -0.2020 
      2 C          29.7577   -0.5083   -1.2289 C.2       0 UNK         0.4855 
      3 O          29.2013   -0.5328   -0.1313 O.2       0 UNK        -0.5197 
      4 N          29.5512   -1.4396   -2.1692 N.am      1 UNK        -0.4892 
      5 CA         28.7136   -2.6465   -2.0758 C.3       1 UNK         0.0835 
      6 C6         29.1459   -3.5999   -0.9271 C.3       12 UNK        -0.0855 
      7 S7         28.8252   -5.3570   -1.3069 S.3       12 UNK        -0.2931 
      8 C8         30.4142   -5.8824   -2.0333 C.3       12 UNK         0.0378 
      9 C9         30.6988   -5.1574   -3.3409 C.ar      12 UNK        -0.0802 
     10 C10        31.6434   -4.1248   -3.3854 C.ar      12 UNK        -0.0944 
     11 C11        31.8706   -3.4262   -4.5744 C.ar      12 UNK        -0.0787 
     12 C12        31.1447   -3.7696   -5.7158 C.ar      12 UNK        -0.0862 
     13 C13        30.1929   -4.7897   -5.6889 C.ar      12 UNK        -0.0733 
     14 C14        29.9892   -5.4971   -4.4990 C.ar      12 UNK        -0.0832 
     15 C15        29.4039   -5.1005   -6.9586 C.3       12 UNK         0.0240 
     16 S16        27.6083   -5.3137   -6.7078 S.3       12 UNK        -0.2522 
     17 C17        27.1317   -3.8146   -5.7855 C.3       12 UNK        -0.0967 
     18 CA         26.7625   -2.6068   -6.6895 C.3       5 UNK         0.0660 
     19 N          25.4115   -2.1063   -6.4117 N.am      5 UNK        -0.4015 
     20 C          24.7573   -1.2072   -7.1612 C.2       4 UNK         0.4946 
     21 O          25.2348   -0.6667   -8.1588 O.2       4 UNK        -0.5353 
     22 CA         23.3710   -0.7885   -6.6671 C.3       4 UNK         0.0277 
     23 CB         22.4047   -1.9803   -6.5249 C.3       4 UNK        -0.1981 
     24 N          23.5485   -0.0972   -5.3980 N.am      4 UNK        -0.4209 
     25 C          22.7342    0.7984   -4.8416 C.2       3 UNK         0.4942 
     26 O          21.6249    1.0855   -5.2956 O.2       3 UNK        -0.5208 
     27 CA         23.2740    1.5121   -3.5799 C.3       3 UNK         0.0250 
     28 CB         22.2241    2.4369   -2.9345 C.3       3 UNK        -0.1990 
     29 N          23.8237    0.6290   -2.5387 N.am      3 UNK        -0.4232 
     30 C          24.9383   -0.1140   -2.6087 C.2       2 UNK         0.4993 
     31 O          25.6006   -0.2489   -3.6424 O.2       2 UNK        -0.5286 
     32 CA         25.3797   -0.7925   -1.2965 C.3       2 UNK         0.0209 
     33 CB         24.3637   -1.8605   -0.8379 C.3       2 UNK        -0.1931 
     34 N          26.7432   -1.3423   -1.3590 N.am      2 UNK        -0.4546 
     35 C          27.1914   -2.3748   -2.0870 C.2       1 UNK         0.5154 
     36 O          26.4640   -3.0891   -2.7768 O.2       1 UNK        -0.5181 
     37 C          27.8237   -1.4877   -6.6089 C.2       5 UNK         0.5014 
     38 O          28.7233   -1.4507   -7.4507 O.2       5 UNK        -0.5248 
     39 N          27.6712   -0.5691   -5.6378 N.am      6 UNK        -0.4434 
     40 CA         28.5274    0.6083   -5.4646 C.3       6 UNK         0.0363 
     41 CB         28.1520    1.3510   -4.1731 C.3       6 UNK        -0.1936 
     42 C          28.4715    1.5815   -6.6487 C.2       6 UNK         0.5081 
     43 O          29.4912    2.1900   -6.9709 O.2       6 UNK        -0.5248 
     44 N          27.2911    1.7072   -7.2688 N.am      7 UNK        -0.4718 
     45 CA         27.0710    2.5244   -8.4596 C.3       7 UNK         0.0273 
     46 CB         25.5785    2.8741   -8.5787 C.3       7 UNK        -0.1935 
     47 C          27.5754    1.8172   -9.7250 C.2       7 UNK         0.5018 
     48 O          28.2248    2.4582  -10.5507 O.2       7 UNK        -0.5186 
     49 N          27.2867    0.5121   -9.8434 N.am      8 UNK        -0.4240 
     50 CA         27.6766   -0.3351  -10.9733 C.3       8 UNK         0.0235 
     51 CB         27.0145   -1.7159  -10.8385 C.3       8 UNK        -0.2000 
     52 C          29.1988   -0.4771  -11.1317 C.2       8 UNK         0.4941 
     53 O          29.7049   -0.3254  -12.2443 O.2       8 UNK        -0.5273 
     54 N          29.9002   -0.7526  -10.0235 N.am      9 UNK        -0.4262 
     55 CA         31.3602   -0.8866   -9.9967 C.3       9 UNK         0.0264 
     56 CB         31.7467   -1.8284   -8.8509 C.3       9 UNK        -0.1955 
     57 C          32.0931    0.4553   -9.8325 C.2       9 UNK         0.5031 
     58 O          33.3081    0.4943  -10.0304 O.2       9 UNK        -0.5390 
     59 N          31.3625    1.5084   -9.4373 N.am      10 UNK        -0.4204 
     60 CA         31.8431    2.8517   -9.0897 C.3       10 UNK         0.0237 
     61 CB         32.4998    3.5462  -10.3025 C.3       10 UNK        -0.1985 
     62 C          32.7270    2.8900   -7.8234 C.2       10 UNK         0.4970 
     63 O          33.4701    3.8560   -7.6388 O.2       10 UNK        -0.4914 
     64 N          32.6222    1.8664   -6.9626 N.am      11 UNK        -0.4285 
     65 CA         33.2741    1.8132   -5.6445 C.3       11 UNK         0.1007 
     66 C          32.5484    2.6393   -4.5425 C.2       11 UNK         0.5703 
     67 N          31.3339    3.1286   -4.7679 N.am      11 UNK        -0.7361 
     68 O          33.1080    2.8561   -3.4705 O.2       11 UNK        -0.4986 
     69 C69        33.5853    0.3577   -5.1982 C.3       12 UNK        -0.0947 
     70 S70        32.1167   -0.6996   -4.9753 S.3       12 UNK        -0.2240 
     71 C71        32.9010   -2.3075   -4.6458 C.3       12 UNK         0.0194 
     72 H72        30.9046    0.6860   -2.6423 H         1 UNK         0.0906 
     73 H73        30.2679    1.5864   -1.2716 H         1 UNK         0.0906 
     74 H74        31.6498    0.5097   -1.0516 H         1 UNK         0.0906 
     75 H75        30.0334   -1.3405   -3.0528 H         1 UNK         0.3140 
     76 H76        28.9108   -3.1555   -3.0177 H         1 UNK         0.1085 
     77 H77        30.2124   -3.4903   -0.7248 H         1 UNK         0.0836 
     78 H78        28.6470   -3.3393    0.0084 H         1 UNK         0.0836 
     79 H79        31.2170   -5.7184   -1.3126 H         1 UNK         0.0731 
     80 H80        30.3826   -6.9576   -2.2152 H         1 UNK         0.0731 
     81 H81        32.1921   -3.8579   -2.4926 H         1 UNK         0.1312 
     82 H82        31.3175   -3.2275   -6.6299 H         1 UNK         0.1406 
     83 H83        29.2526   -6.2885   -4.4631 H         1 UNK         0.1631 
     84 H84        29.5424   -4.3086   -7.6968 H         1 UNK         0.0717 
     85 H85        29.8053   -6.0105   -7.4058 H         1 UNK         0.0717 
     86 H86        26.2759   -4.1117   -5.1779 H         1 UNK         0.0934 
     87 H87        27.9041   -3.5677   -5.0580 H         1 UNK         0.0934 
     88 H88        26.7470   -2.9404   -7.7288 H         1 UNK         0.0739 
     89 H89        24.9596   -2.4747   -5.5872 H         1 UNK         0.3093 
     90 H90        22.9585   -0.0875   -7.3961 H         1 UNK         0.0818 
     91 H91        21.3968   -1.6407   -6.2857 H         1 UNK         0.0819 
     92 H92        22.3414   -2.5448   -7.4562 H         1 UNK         0.0819 
     93 H93        22.7136   -2.6712   -5.7401 H         1 UNK         0.0819 
     94 H94        24.4359   -0.2471   -4.9164 H         1 UNK         0.3041 
     95 H95        24.0934    2.1463   -3.9252 H         1 UNK         0.0784 
     96 H96        21.8470    3.1666   -3.6525 H         1 UNK         0.0793 
     97 H97        21.3679    1.8739   -2.5608 H         1 UNK         0.0793 
     98 H98        22.6467    3.0000   -2.1021 H         1 UNK         0.0793 
     99 H99        23.3257    0.6426   -1.6604 H         1 UNK         0.3024 
    100 H100       25.4156   -0.0107   -0.5359 H         1 UNK         0.1171 
    101 H101       23.3988   -1.4127   -0.5984 H         1 UNK         0.0786 
    102 H102       24.1849   -2.6128   -1.6067 H         1 UNK         0.0786 
    103 H103       24.7081   -2.3753    0.0591 H         1 UNK         0.0786 
    104 H104       27.4511   -0.8372   -0.8318 H         1 UNK         0.2977 
    105 H105       26.9015   -0.6574   -4.9780 H         1 UNK         0.3127 
    106 H106       29.5524    0.2560   -5.3749 H         1 UNK         0.0770 
    107 H107       27.1733    1.8260   -4.2510 H         1 UNK         0.0814 
    108 H108       28.8729    2.1361   -3.9472 H         1 UNK         0.0814 
    109 H109       28.1231    0.6810   -3.3171 H         1 UNK         0.0814 
    110 H110       26.5188    1.1375   -6.9552 H         1 UNK         0.2983 
    111 H111       27.6300    3.4572   -8.3525 H         1 UNK         0.0947 
    112 H112       25.3959    3.5040   -9.4505 H         1 UNK         0.0806 
    113 H113       25.2298    3.4238   -7.7043 H         1 UNK         0.0806 
    114 H114       24.9566    1.9846   -8.6846 H         1 UNK         0.0806 
    115 H115       26.6995    0.0796   -9.1340 H         1 UNK         0.3000 
    116 H116       27.2937    0.1367  -11.8808 H         1 UNK         0.0850 
    117 H117       25.9285   -1.6327  -10.7914 H         1 UNK         0.0810 
    118 H118       27.3488   -2.2375   -9.9415 H         1 UNK         0.0810 
    119 H119       27.2550   -2.3495  -11.6932 H         1 UNK         0.0810 
    120 H120       29.4074   -0.9068   -9.1448 H         1 UNK         0.3040 
    121 H121       31.6992   -1.3356  -10.9329 H         1 UNK         0.0766 
    122 H122       31.2628   -2.7990   -8.9583 H         1 UNK         0.0812 
    123 H123       31.4602   -1.4050   -7.8881 H         1 UNK         0.0812 
    124 H124       32.8236   -2.0009   -8.8255 H         1 UNK         0.0812 
    125 H125       30.3718    1.3619   -9.2986 H         1 UNK         0.3205 
    126 H126       30.9497    3.4258   -8.8406 H         1 UNK         0.0754 
    127 H127       32.6934    4.5988  -10.0930 H         1 UNK         0.0769 
    128 H128       31.8529    3.5064  -11.1790 H         1 UNK         0.0769 
    129 H129       33.4536    3.0889  -10.5667 H         1 UNK         0.0769 
    130 H130       31.9525    1.1373   -7.1557 H         1 UNK         0.2981 
    131 H131       34.2462    2.2977   -5.7540 H         1 UNK         0.0541 
    132 H132       30.8490    2.9306   -5.6355 H         1 UNK         0.3459 
    133 H133       30.8901    3.6842   -4.0556 H         1 UNK         0.3459 
    134 H134       34.1536    0.3593   -4.2663 H         1 UNK         0.0612 
    135 H135       34.2325   -0.1136   -5.9394 H         1 UNK         0.0612 
    136 H136       33.6151   -2.5312   -5.4397 H         1 UNK         0.0624 
    137 H137       33.4716   -2.2429   -3.7181 H         1 UNK         0.0624 
@<TRIPOS>BOND
     1    1    2 1    
     2    1   72 1    
     3    1   73 1    
     4    1   74 1    
     5    2    3 2    
     6    2    4 am   BACKBONE|DICT|INTERRES
     7    4    5 1    
     8    4   75 1    
     9    5    6 1    
    10    5   35 1    
    11    5   76 1    
    12    6    7 1    
    13    6   77 1    
    14    6   78 1    
    15    7    8 1    
    16    8    9 1    
    17    8   79 1    
    18    8   80 1    
    19    9   10 ar   
    20    9   14 ar   
    21   10   11 ar   
    22   10   81 1    
    23   11   12 ar   
    24   11   71 1    
    25   12   13 ar   
    26   12   82 1    
    27   13   14 ar   
    28   13   15 1    
    29   14   83 1    
    30   15   16 1    
    31   15   84 1    
    32   15   85 1    
    33   16   17 1    
    34   17   18 1    
    35   17   86 1    
    36   17   87 1    
    37   18   19 1    
    38   18   37 1    
    39   18   88 1    
    40   19   20 am   BACKBONE|DICT|INTERRES
    41   19   89 1    
    42   20   21 2    
    43   20   22 1    
    44   22   23 1    
    45   22   24 1    
    46   22   90 1    
    47   23   91 1    
    48   23   92 1    
    49   23   93 1    
    50   24   25 am   BACKBONE|DICT|INTERRES
    51   24   94 1    
    52   25   26 2    
    53   25   27 1    
    54   27   28 1    
    55   27   29 1    
    56   27   95 1    
    57   28   96 1    
    58   28   97 1    
    59   28   98 1    
    60   29   30 am   BACKBONE|DICT|INTERRES
    61   29   99 1    
    62   30   31 2    
    63   30   32 1    
    64   32   33 1    
    65   32   34 1    
    66   32  100 1    
    67   33  101 1    
    68   33  102 1    
    69   33  103 1    
    70   34   35 am   BACKBONE|DICT|INTERRES
    71   34  104 1    
    72   35   36 2    
    73   37   38 2    
    74   37   39 am   BACKBONE|DICT|INTERRES
    75   39   40 1    
    76   39  105 1    
    77   40   41 1    
    78   40   42 1    
    79   40  106 1    
    80   41  107 1    
    81   41  108 1    
    82   41  109 1    
    83   42   43 2    
    84   42   44 am   BACKBONE|DICT|INTERRES
    85   44   45 1    
    86   44  110 1    
    87   45   46 1    
    88   45   47 1    
    89   45  111 1    
    90   46  112 1    
    91   46  113 1    
    92   46  114 1    
    93   47   48 2    
    94   47   49 am   BACKBONE|DICT|INTERRES
    95   49   50 1    
    96   49  115 1    
    97   50   51 1    
    98   50   52 1    
    99   50  116 1    
   100   51  117 1    
   101   51  118 1    
   102   51  119 1    
   103   52   53 2    
   104   52   54 am   BACKBONE|DICT|INTERRES
   105   54   55 1    
   106   54  120 1    
   107   55   56 1    
   108   55   57 1    
   109   55  121 1    
   110   56  122 1    
   111   56  123 1    
   112   56  124 1    
   113   57   58 2    
   114   57   59 am   BACKBONE|DICT|INTERRES
   115   59   60 1    
   116   59  125 1    
   117   60   61 1    
   118   60   62 1    
   119   60  126 1    
   120   61  127 1    
   121   61  128 1    
   122   61  129 1    
   123   62   63 2    
   124   62   64 am   BACKBONE|DICT|INTERRES
   125   64   65 1    
   126   64  130 1    
   127   65   66 1    
   128   65   69 1    
   129   65  131 1    
   130   66   67 am   BACKBONE|DICT|INTERRES
   131   66   68 2    
   132   67  132 1    
   133   67  133 1    
   134   69   70 1    
   135   69  134 1    
   136   69  135 1    
   137   70   71 1    
   138   71  136 1    
   139   71  137 1    
@<TRIPOS>SUBSTRUCTURE
     1 UNK         1 GROUP             0       ****    0 ROOT    
