@<TRIPOS>MOLECULE
3R137
137   139    1
SMALL
USER_CHARGES


@<TRIPOS>ATOM
      1 CA         31.7857    0.4731   -0.5499 C.3       0 UNK        -0.2020 
      2 C          30.7968   -0.5065   -1.1631 C.2       0 UNK         0.4855 
      3 O          30.3339   -0.2923   -2.2835 O.2       0 UNK        -0.5197 
      4 N          30.4757   -1.5823   -0.4348 N.am      1 UNK        -0.4892 
      5 CA         29.5161   -2.6116   -0.8465 C.3       1 UNK         0.0835 
      6 C6         29.6722   -3.9112   -0.0127 C.3       12 UNK        -0.0855 
      7 S7         31.3031   -4.7028   -0.2209 S.3       12 UNK        -0.2931 
      8 C8         30.9435   -5.9588   -1.4933 C.3       12 UNK         0.0378 
      9 C9         30.6592   -5.3122   -2.8408 C.ar      12 UNK        -0.0802 
     10 C10        31.7156   -4.8194   -3.6089 C.ar      12 UNK        -0.0944 
     11 C11        31.4724   -4.1713   -4.8235 C.ar      12 UNK        -0.0787 
     12 C12        30.1546   -4.0359   -5.2706 C.ar      12 UNK        -0.0862 
     13 C13        29.0798   -4.5408   -4.5232 C.ar      12 UNK        -0.0733 
     14 C14        29.3484   -5.1863   -3.3109 C.ar      12 UNK        -0.0832 
     15 C15        27.6175   -4.4082   -4.9640 C.3       12 UNK         0.0240 
     16 S16        27.3413   -3.9500   -6.7091 S.3       12 UNK        -0.2522 
     17 C17        27.6394   -2.1485   -6.6774 C.3       12 UNK        -0.0967 
     18 CA         26.4447   -1.3599   -7.2651 C.3       5 UNK         0.0660 
     19 N          25.2293   -1.5071   -6.4609 N.am      5 UNK        -0.4015 
     20 C          23.9878   -1.5194   -6.9693 C.2       4 UNK         0.4946 
     21 O          23.7416   -1.4221   -8.1723 O.2       4 UNK        -0.5353 
     22 CA         22.8133   -1.6313   -5.9766 C.3       4 UNK         0.0277 
     23 CB         22.3879   -3.1001   -5.8187 C.3       4 UNK        -0.1981 
     24 N          23.0962   -1.0676   -4.6536 N.am      4 UNK        -0.4209 
     25 C          23.4505    0.2037   -4.4175 C.2       3 UNK         0.4942 
     26 O          23.5013    1.0655   -5.2932 O.2       3 UNK        -0.5208 
     27 CA         23.8829    0.5671   -2.9855 C.3       3 UNK         0.0250 
     28 CB         22.7299    1.2542   -2.2368 C.3       3 UNK        -0.1990 
     29 N          24.3755   -0.5640   -2.1883 N.am      3 UNK        -0.4232 
     30 C          25.4163   -1.3479   -2.5052 C.2       2 UNK         0.4993 
     31 O          26.0571   -1.2560   -3.5564 O.2       2 UNK        -0.5286 
     32 CA         25.7316   -2.4788   -1.5176 C.3       2 UNK         0.0209 
     33 CB         24.9639   -3.7540   -1.9066 C.3       2 UNK        -0.1931 
     34 N          27.1640   -2.7723   -1.4938 N.am      2 UNK        -0.4546 
     35 C          28.0617   -2.1027   -0.7603 C.2       1 UNK         0.5154 
     36 O          27.7671   -1.1762    0.0008 O.2       1 UNK        -0.5181 
     37 C          26.8253    0.1160   -7.5002 C.2       5 UNK         0.5014 
     38 O          27.7491    0.3582   -8.2785 O.2       5 UNK        -0.5248 
     39 N          26.1339    1.0873   -6.8786 N.am      6 UNK        -0.4434 
     40 CA         26.4359    2.5215   -7.0086 C.3       6 UNK         0.0363 
     41 CB         25.6312    3.3249   -5.9753 C.3       6 UNK        -0.1936 
     42 C          26.2112    3.0879   -8.4236 C.2       6 UNK         0.5081 
     43 O          26.7865    4.1250   -8.7517 O.2       6 UNK        -0.5248 
     44 N          25.4099    2.3929   -9.2443 N.am      7 UNK        -0.4718 
     45 CA         25.2285    2.6811  -10.6694 C.3       7 UNK         0.0273 
     46 CB         24.0345    1.8726  -11.2018 C.3       7 UNK        -0.1935 
     47 C          26.4920    2.3941  -11.5036 C.2       7 UNK         0.5018 
     48 O          26.7279    3.0885  -12.4930 O.2       7 UNK        -0.5186 
     49 N          27.2785    1.3905  -11.0886 N.am      8 UNK        -0.4240 
     50 CA         28.5825    1.0622  -11.6679 C.3       8 UNK         0.0235 
     51 CB         28.8150   -0.4563  -11.5831 C.3       8 UNK        -0.2000 
     52 C          29.7108    1.8208  -10.9527 C.2       8 UNK         0.4941 
     53 O          30.6448    2.2751  -11.6133 O.2       8 UNK        -0.5273 
     54 N          29.5992    1.9322   -9.6191 N.am      9 UNK        -0.4262 
     55 CA         30.5178    2.5944   -8.6854 C.3       9 UNK         0.0264 
     56 CB         30.5965    4.1103   -8.9637 C.3       9 UNK        -0.1955 
     57 C          31.9055    1.9283   -8.6032 C.2       9 UNK         0.5031 
     58 O          32.8768    2.5897   -8.2323 O.2       9 UNK        -0.5390 
     59 N          31.9736    0.6232   -8.9087 N.am      10 UNK        -0.4204 
     60 CA         33.1977   -0.1877   -8.9487 C.3       10 UNK         0.0237 
     61 CB         32.8499   -1.5974   -9.4556 C.3       10 UNK        -0.1985 
     62 C          33.9595   -0.2678   -7.6122 C.2       10 UNK         0.4970 
     63 O          35.1844   -0.3956   -7.6276 O.2       10 UNK        -0.4914 
     64 N          33.2239   -0.1737   -6.4995 N.am      11 UNK        -0.4285 
     65 CA         33.7465   -0.0944   -5.1274 C.3       11 UNK         0.1007 
     66 C          33.5100    1.3038   -4.4827 C.2       11 UNK         0.5703 
     67 N          33.1514    2.3378   -5.2372 N.am      11 UNK        -0.7361 
     68 O          33.6876    1.4712   -3.2791 O.2       11 UNK        -0.4986 
     69 C69        33.2110   -1.2653   -4.2573 C.3       12 UNK        -0.0947 
     70 S70        33.9623   -2.8546   -4.7431 S.3       12 UNK        -0.2240 
     71 C71        32.6196   -3.6507   -5.6866 C.3       12 UNK         0.0194 
     72 H72        31.4768    1.4985   -0.7511 H         1 UNK         0.0906 
     73 H73        32.7748    0.3253   -0.9820 H         1 UNK         0.0906 
     74 H74        31.8621    0.3495    0.5302 H         1 UNK         0.0906 
     75 H75        30.8789   -1.7047    0.4829 H         1 UNK         0.3140 
     76 H76        29.7181   -2.8359   -1.8954 H         1 UNK         0.1085 
     77 H77        28.9005   -4.6399   -0.2679 H         1 UNK         0.0836 
     78 H78        29.5336   -3.6979    1.0491 H         1 UNK         0.0836 
     79 H79        31.8031   -6.6246   -1.5851 H         1 UNK         0.0731 
     80 H80        30.1084   -6.5835   -1.1725 H         1 UNK         0.0731 
     81 H81        32.7291   -4.9309   -3.2488 H         1 UNK         0.1312 
     82 H82        29.9818   -3.5425   -6.2144 H         1 UNK         0.1406 
     83 H83        28.5324   -5.5846   -2.7229 H         1 UNK         0.1631 
     84 H84        27.1175   -3.6788   -4.3280 H         1 UNK         0.0717 
     85 H85        27.1124   -5.3606   -4.7953 H         1 UNK         0.0717 
     86 H86        27.8605   -1.8149   -5.6613 H         1 UNK         0.0934 
     87 H87        28.5443   -1.9645   -7.2602 H         1 UNK         0.0934 
     88 H88        26.2546   -1.7699   -8.2597 H         1 UNK         0.0739 
     89 H89        25.3637   -1.5589   -5.4555 H         1 UNK         0.3093 
     90 H90        21.9758   -1.0722   -6.3993 H         1 UNK         0.0818 
     91 H91        22.1451   -3.5417   -6.7865 H         1 UNK         0.0819 
     92 H92        23.1798   -3.7050   -5.3748 H         1 UNK         0.0819 
     93 H93        21.5008   -3.1928   -5.1919 H         1 UNK         0.0819 
     94 H94        23.0744   -1.7063   -3.8727 H         1 UNK         0.3041 
     95 H95        24.7050    1.2804   -3.0746 H         1 UNK         0.0784 
     96 H96        22.3613    2.1167   -2.7945 H         1 UNK         0.0793 
     97 H97        21.8863    0.5793   -2.0861 H         1 UNK         0.0793 
     98 H98        23.0500    1.6175   -1.2600 H         1 UNK         0.0793 
     99 H99        23.8924   -0.7332   -1.3172 H         1 UNK         0.3024 
    100 H100       25.4165   -2.1751   -0.5160 H         1 UNK         0.1171 
    101 H101       23.8863   -3.5887   -1.8686 H         1 UNK         0.0786 
    102 H102       25.2042   -4.0861   -2.9169 H         1 UNK         0.0786 
    103 H103       25.1853   -4.5740   -1.2231 H         1 UNK         0.0786 
    104 H104       27.4848   -3.4883   -2.1260 H         1 UNK         0.2977 
    105 H105       25.3435    0.8448   -6.2912 H         1 UNK         0.3127 
    106 H106       27.4958    2.6513   -6.7792 H         1 UNK         0.0770 
    107 H107       24.5618    3.2961   -6.1867 H         1 UNK         0.0814 
    108 H108       25.9319    4.3734   -5.9797 H         1 UNK         0.0814 
    109 H109       25.7872    2.9478   -4.9646 H         1 UNK         0.0814 
    110 H110       24.9536    1.5685   -8.8802 H         1 UNK         0.2983 
    111 H111       24.9994    3.7439  -10.7752 H         1 UNK         0.0947 
    112 H112       24.1949    0.7983  -11.1011 H         1 UNK         0.0806 
    113 H113       23.8643    2.0794  -12.2595 H         1 UNK         0.0806 
    114 H114       23.1160    2.1261  -10.6722 H         1 UNK         0.0806 
    115 H115       27.0268    0.9031  -10.2383 H         1 UNK         0.3000 
    116 H116       28.5997    1.3486  -12.7220 H         1 UNK         0.0850 
    117 H117       29.7824   -0.7268  -12.0088 H         1 UNK         0.0810 
    118 H118       28.0536   -1.0027  -12.1398 H         1 UNK         0.0810 
    119 H119       28.7983   -0.8174  -10.5541 H         1 UNK         0.0810 
    120 H120       28.8210    1.4474   -9.1724 H         1 UNK         0.3040 
    121 H121       30.0724    2.4695   -7.6973 H         1 UNK         0.0766 
    122 H122       31.1000    4.3236   -9.9069 H         1 UNK         0.0812 
    123 H123       31.1494    4.6254   -8.1773 H         1 UNK         0.0812 
    124 H124       29.6029    4.5569   -9.0046 H         1 UNK         0.0812 
    125 H125       31.1192    0.1661   -9.1912 H         1 UNK         0.3205 
    126 H126       33.8698    0.2788   -9.6721 H         1 UNK         0.0754 
    127 H127       33.7400   -2.2265   -9.5045 H         1 UNK         0.0769 
    128 H128       32.4247   -1.5644  -10.4591 H         1 UNK         0.0769 
    129 H129       32.1329   -2.0974   -8.8035 H         1 UNK         0.0769 
    130 H130       32.2271   -0.0515   -6.5922 H         1 UNK         0.2981 
    131 H131       34.8340   -0.1821   -5.1503 H         1 UNK         0.0541 
    132 H132       33.0184    3.2339   -4.7966 H         1 UNK         0.3459 
    133 H133       33.0918    2.2624   -6.2460 H         1 UNK         0.3459 
    134 H134       32.1226   -1.3277   -4.3073 H         1 UNK         0.0612 
    135 H135       33.4565   -1.1177   -3.2045 H         1 UNK         0.0612 
    136 H136       32.2535   -2.9446   -6.4327 H         1 UNK         0.0624 
    137 H137       33.0402   -4.4918   -6.2387 H         1 UNK         0.0624 
@<TRIPOS>BOND
     1    1    2 1    
     2    1   72 1    
     3    1   73 1    
     4    1   74 1    
     5    2    3 2    
     6    2    4 am   BACKBONE|DICT|INTERRES
     7    4    5 1    
     8    4   75 1    
     9    5    6 1    
    10    5   35 1    
    11    5   76 1    
    12    6    7 1    
    13    6   77 1    
    14    6   78 1    
    15    7    8 1    
    16    8    9 1    
    17    8   79 1    
    18    8   80 1    
    19    9   10 ar   
    20    9   14 ar   
    21   10   11 ar   
    22   10   81 1    
    23   11   12 ar   
    24   11   71 1    
    25   12   13 ar   
    26   12   82 1    
    27   13   14 ar   
    28   13   15 1    
    29   14   83 1    
    30   15   16 1    
    31   15   84 1    
    32   15   85 1    
    33   16   17 1    
    34   17   18 1    
    35   17   86 1    
    36   17   87 1    
    37   18   19 1    
    38   18   37 1    
    39   18   88 1    
    40   19   20 am   BACKBONE|DICT|INTERRES
    41   19   89 1    
    42   20   21 2    
    43   20   22 1    
    44   22   23 1    
    45   22   24 1    
    46   22   90 1    
    47   23   91 1    
    48   23   92 1    
    49   23   93 1    
    50   24   25 am   BACKBONE|DICT|INTERRES
    51   24   94 1    
    52   25   26 2    
    53   25   27 1    
    54   27   28 1    
    55   27   29 1    
    56   27   95 1    
    57   28   96 1    
    58   28   97 1    
    59   28   98 1    
    60   29   30 am   BACKBONE|DICT|INTERRES
    61   29   99 1    
    62   30   31 2    
    63   30   32 1    
    64   32   33 1    
    65   32   34 1    
    66   32  100 1    
    67   33  101 1    
    68   33  102 1    
    69   33  103 1    
    70   34   35 am   BACKBONE|DICT|INTERRES
    71   34  104 1    
    72   35   36 2    
    73   37   38 2    
    74   37   39 am   BACKBONE|DICT|INTERRES
    75   39   40 1    
    76   39  105 1    
    77   40   41 1    
    78   40   42 1    
    79   40  106 1    
    80   41  107 1    
    81   41  108 1    
    82   41  109 1    
    83   42   43 2    
    84   42   44 am   BACKBONE|DICT|INTERRES
    85   44   45 1    
    86   44  110 1    
    87   45   46 1    
    88   45   47 1    
    89   45  111 1    
    90   46  112 1    
    91   46  113 1    
    92   46  114 1    
    93   47   48 2    
    94   47   49 am   BACKBONE|DICT|INTERRES
    95   49   50 1    
    96   49  115 1    
    97   50   51 1    
    98   50   52 1    
    99   50  116 1    
   100   51  117 1    
   101   51  118 1    
   102   51  119 1    
   103   52   53 2    
   104   52   54 am   BACKBONE|DICT|INTERRES
   105   54   55 1    
   106   54  120 1    
   107   55   56 1    
   108   55   57 1    
   109   55  121 1    
   110   56  122 1    
   111   56  123 1    
   112   56  124 1    
   113   57   58 2    
   114   57   59 am   BACKBONE|DICT|INTERRES
   115   59   60 1    
   116   59  125 1    
   117   60   61 1    
   118   60   62 1    
   119   60  126 1    
   120   61  127 1    
   121   61  128 1    
   122   61  129 1    
   123   62   63 2    
   124   62   64 am   BACKBONE|DICT|INTERRES
   125   64   65 1    
   126   64  130 1    
   127   65   66 1    
   128   65   69 1    
   129   65  131 1    
   130   66   67 am   BACKBONE|DICT|INTERRES
   131   66   68 2    
   132   67  132 1    
   133   67  133 1    
   134   69   70 1    
   135   69  134 1    
   136   69  135 1    
   137   70   71 1    
   138   71  136 1    
   139   71  137 1    
@<TRIPOS>SUBSTRUCTURE
     1 UNK         1 GROUP             0       ****    0 ROOT    
