@<TRIPOS>MOLECULE
3R137
137   139    1
SMALL
USER_CHARGES


@<TRIPOS>ATOM
      1 CA         23.1088   -5.6717   -3.4904 C.3       0 UNK        -0.2020 
      2 C          24.0635   -5.0914   -2.4584 C.2       0 UNK         0.4855 
      3 O          23.6226   -4.6437   -1.3997 O.2       0 UNK        -0.5197 
      4 N          25.3687   -5.0874   -2.7593 N.am      1 UNK        -0.4892 
      5 CA         26.4385   -4.5601   -1.9050 C.3       1 UNK         0.0835 
      6 C6         27.8077   -5.1682   -2.3115 C.3       12 UNK        -0.0855 
      7 S7         29.0313   -5.0990   -0.9618 S.3       12 UNK        -0.2931 
      8 C8         30.6031   -5.0715   -1.8921 C.3       12 UNK         0.0378 
      9 C9         30.8170   -3.7748   -2.6654 C.ar      12 UNK        -0.0802 
     10 C10        31.1362   -3.8033   -4.0268 C.ar      12 UNK        -0.0944 
     11 C11        31.3308   -2.6132   -4.7372 C.ar      12 UNK        -0.0787 
     12 C12        31.1879   -1.3866   -4.0815 C.ar      12 UNK        -0.0862 
     13 C13        30.8848   -1.3469   -2.7185 C.ar      12 UNK        -0.0733 
     14 C14        30.7151   -2.5425   -2.0156 C.ar      12 UNK        -0.0832 
     15 C15        30.7314   -0.0229   -1.9901 C.3       12 UNK         0.0240 
     16 S16        29.0083    0.2089   -1.4623 S.3       12 UNK        -0.2522 
     17 C17        28.4345    1.5825   -2.5065 C.3       12 UNK        -0.0967 
     18 CA         28.4634    1.3547   -4.0437 C.3       5 UNK         0.0660 
     19 N          27.9012    0.0736   -4.4904 N.am      5 UNK        -0.4015 
     20 C          27.9326   -0.3635   -5.7620 C.2       4 UNK         0.4946 
     21 O          28.5433    0.1991   -6.6713 O.2       4 UNK        -0.5353 
     22 CA         27.0940   -1.6012   -6.1100 C.3       4 UNK         0.0277 
     23 CB         27.9053   -2.8926   -5.9225 C.3       4 UNK        -0.1981 
     24 N          25.8544   -1.6543   -5.3340 N.am      4 UNK        -0.4209 
     25 C          24.8060   -0.8419   -5.5414 C.2       3 UNK         0.4942 
     26 O          24.7639    0.0020   -6.4355 O.2       3 UNK        -0.5208 
     27 CA         23.6203   -0.9577   -4.5672 C.3       3 UNK         0.0250 
     28 CB         22.6464   -2.0498   -5.0357 C.3       3 UNK        -0.1990 
     29 N          24.0378   -1.2308   -3.1911 N.am      3 UNK        -0.4232 
     30 C          24.7846   -0.4056   -2.4434 C.2       2 UNK         0.4993 
     31 O          25.1297    0.7198   -2.8049 O.2       2 UNK        -0.5286 
     32 CA         25.2837   -0.9597   -1.0966 C.3       2 UNK         0.0209 
     33 CB         24.2839   -0.6359    0.0241 C.3       2 UNK        -0.1931 
     34 N          25.5433   -2.4062   -1.1211 N.am      2 UNK        -0.4546 
     35 C          26.4157   -3.0162   -1.9374 C.2       1 UNK         0.5154 
     36 O          27.0978   -2.4067   -2.7609 O.2       1 UNK        -0.5181 
     37 C          27.7547    2.5377   -4.7311 C.2       5 UNK         0.5014 
     38 O          28.4259    3.4063   -5.2883 O.2       5 UNK        -0.5248 
     39 N          26.4133    2.5412   -4.6738 N.am      6 UNK        -0.4434 
     40 CA         25.5471    3.5825   -5.2322 C.3       6 UNK         0.0363 
     41 CB         24.0913    3.3173   -4.8168 C.3       6 UNK        -0.1936 
     42 C          25.6609    3.7155   -6.7591 C.2       6 UNK         0.5081 
     43 O          25.7340    4.8358   -7.2648 O.2       6 UNK        -0.5248 
     44 N          25.6925    2.5766   -7.4635 N.am      7 UNK        -0.4718 
     45 CA         25.8823    2.5142   -8.9147 C.3       7 UNK         0.0273 
     46 CB         25.4190    1.1372   -9.4182 C.3       7 UNK        -0.1935 
     47 C          27.3342    2.7724   -9.3562 C.2       7 UNK         0.5018 
     48 O          27.5470    3.0925  -10.5263 O.2       7 UNK        -0.5186 
     49 N          28.2951    2.5879   -8.4359 N.am      8 UNK        -0.4240 
     50 CA         29.7471    2.5385   -8.6545 C.3       8 UNK         0.0235 
     51 CB         30.2967    3.9214   -9.0619 C.3       8 UNK        -0.2000 
     52 C          30.1271    1.4144   -9.6387 C.2       8 UNK         0.4941 
     53 O          30.9375    1.6266  -10.5433 O.2       8 UNK        -0.5273 
     54 N          29.4910    0.2473   -9.4609 N.am      9 UNK        -0.4262 
     55 CA         29.5506   -0.9099  -10.3544 C.3       9 UNK         0.0264 
     56 CB         28.4501   -1.9080   -9.9542 C.3       9 UNK        -0.1955 
     57 C          30.9419   -1.5566  -10.3275 C.2       9 UNK         0.5031 
     58 O          31.2321   -2.3288   -9.4139 O.2       9 UNK        -0.5390 
     59 N          31.7975   -1.1682  -11.2833 N.am      10 UNK        -0.4204 
     60 CA         33.2243   -1.4987  -11.4367 C.3       10 UNK         0.0237 
     61 CB         33.4525   -3.0182  -11.5633 C.3       10 UNK        -0.1985 
     62 C          34.1353   -0.8863  -10.3543 C.2       10 UNK         0.4970 
     63 O          35.2522   -0.4787  -10.6750 O.2       10 UNK        -0.4914 
     64 N          33.6482   -0.8149   -9.1115 N.am      11 UNK        -0.4285 
     65 CA         34.3211   -0.2182   -7.9492 C.3       11 UNK         0.1007 
     66 C          34.4727    1.3302   -8.0083 C.2       11 UNK         0.5703 
     67 N          33.7696    2.0411   -8.8833 N.am      11 UNK        -0.7361 
     68 O          35.2514    1.8969   -7.2454 O.2       11 UNK        -0.4986 
     69 C69        33.6532   -0.6504   -6.6164 C.3       12 UNK        -0.0947 
     70 S70        33.4884   -2.4634   -6.4570 S.3       12 UNK        -0.2240 
     71 C71        31.6937   -2.6565   -6.2130 C.3       12 UNK         0.0194 
     72 H72        22.2766   -4.9891   -3.6607 H         1 UNK         0.0906 
     73 H73        23.6004   -5.8513   -4.4464 H         1 UNK         0.0906 
     74 H74        22.7027   -6.6175   -3.1325 H         1 UNK         0.0906 
     75 H75        25.6683   -5.4568   -3.6508 H         1 UNK         0.3140 
     76 H76        26.2269   -4.8743   -0.8799 H         1 UNK         0.1085 
     77 H77        28.2048   -4.6980   -3.2125 H         1 UNK         0.0836 
     78 H78        27.6867   -6.2237   -2.5609 H         1 UNK         0.0836 
     79 H79        30.6328   -5.9339   -2.5602 H         1 UNK         0.0731 
     80 H80        31.4282   -5.1976   -1.1899 H         1 UNK         0.0731 
     81 H81        31.2371   -4.7521   -4.5358 H         1 UNK         0.1312 
     82 H82        31.3187   -0.4651   -4.6303 H         1 UNK         0.1406 
     83 H83        30.4725   -2.5113   -0.9620 H         1 UNK         0.1631 
     84 H84        31.0631    0.8131   -2.6070 H         1 UNK         0.0717 
     85 H85        31.3726   -0.0242   -1.1076 H         1 UNK         0.0717 
     86 H86        27.4237    1.8136   -2.1663 H         1 UNK         0.0934 
     87 H87        29.0311    2.4613   -2.2533 H         1 UNK         0.0934 
     88 H88        29.5054    1.3689   -4.3683 H         1 UNK         0.0739 
     89 H89        27.4460   -0.4975   -3.7875 H         1 UNK         0.3093 
     90 H90        26.8218   -1.5299   -7.1653 H         1 UNK         0.0818 
     91 H91        27.3016   -3.7789   -6.1167 H         1 UNK         0.0819 
     92 H92        28.7501   -2.9191   -6.6106 H         1 UNK         0.0819 
     93 H93        28.3165   -2.9748   -4.9172 H         1 UNK         0.0819 
     94 H94        25.8640   -2.2498   -4.5163 H         1 UNK         0.3041 
     95 H95        23.0926   -0.0018   -4.5708 H         1 UNK         0.0784 
     96 H96        22.2781   -1.8355   -6.0401 H         1 UNK         0.0793 
     97 H97        23.1225   -3.0303   -5.0675 H         1 UNK         0.0793 
     98 H98        21.7770   -2.1168   -4.3812 H         1 UNK         0.0793 
     99 H99        23.7926   -2.1302   -2.8027 H         1 UNK         0.3024 
    100 H100       26.2260   -0.4581   -0.8710 H         1 UNK         0.1171 
    101 H101       24.6699   -0.9360    0.9984 H         1 UNK         0.0786 
    102 H102       24.0861    0.4361    0.0721 H         1 UNK         0.0786 
    103 H103       23.3278   -1.1384   -0.1286 H         1 UNK         0.0786 
    104 H104       24.9448   -2.9891   -0.5491 H         1 UNK         0.2977 
    105 H105       25.9501    1.8030   -4.1467 H         1 UNK         0.3127 
    106 H106       25.8573    4.5338   -4.7949 H         1 UNK         0.0770 
    107 H107       23.7270    2.3671   -5.2084 H         1 UNK         0.0814 
    108 H108       23.4298    4.0999   -5.1905 H         1 UNK         0.0814 
    109 H109       23.9860    3.2934   -3.7319 H         1 UNK         0.0814 
    110 H110       25.5506    1.6917   -6.9815 H         1 UNK         0.2983 
    111 H111       25.2569    3.2786   -9.3813 H         1 UNK         0.0947 
    112 H112       26.0024    0.3306   -8.9727 H         1 UNK         0.0806 
    113 H113       25.5239    1.0580  -10.5011 H         1 UNK         0.0806 
    114 H114       24.3699    0.9604   -9.1799 H         1 UNK         0.0806 
    115 H115       27.9988    2.3092   -7.5087 H         1 UNK         0.3000 
    116 H116       30.1939    2.2727   -7.6950 H         1 UNK         0.0850 
    117 H117       30.0101    4.6875   -8.3415 H         1 UNK         0.0810 
    118 H118       29.9356    4.2300  -10.0432 H         1 UNK         0.0810 
    119 H119       31.3861    3.9093   -9.1066 H         1 UNK         0.0810 
    120 H120       28.9337    0.1488   -8.6169 H         1 UNK         0.3040 
    121 H121       29.3410   -0.5689  -11.3705 H         1 UNK         0.0766 
    122 H122       28.4698   -2.7880  -10.5982 H         1 UNK         0.0812 
    123 H123       27.4588   -1.4639  -10.0424 H         1 UNK         0.0812 
    124 H124       28.5732   -2.2540   -8.9279 H         1 UNK         0.0812 
    125 H125       31.4655   -0.4522  -11.9170 H         1 UNK         0.3205 
    126 H126       33.5255   -1.0455  -12.3826 H         1 UNK         0.0754 
    127 H127       34.4949   -3.2344  -11.8010 H         1 UNK         0.0769 
    128 H128       32.8428   -3.4461  -12.3591 H         1 UNK         0.0769 
    129 H129       33.2179   -3.5468  -10.6389 H         1 UNK         0.0769 
    130 H130       32.7460   -1.2480   -8.9393 H         1 UNK         0.2981 
    131 H131       35.3382   -0.6144   -7.9437 H         1 UNK         0.0541 
    132 H132       33.8940    3.0401   -8.9116 H         1 UNK         0.3459 
    133 H133       33.1234    1.5958   -9.5178 H         1 UNK         0.3459 
    134 H134       34.2377   -0.2983   -5.7645 H         1 UNK         0.0612 
    135 H135       32.6729   -0.1806   -6.5259 H         1 UNK         0.0612 
    136 H136       31.1448   -1.8879   -6.7591 H         1 UNK         0.0624 
    137 H137       31.3864   -3.6086   -6.6481 H         1 UNK         0.0624 
@<TRIPOS>BOND
     1    1    2 1    
     2    1   72 1    
     3    1   73 1    
     4    1   74 1    
     5    2    3 2    
     6    2    4 am   BACKBONE|DICT|INTERRES
     7    4    5 1    
     8    4   75 1    
     9    5    6 1    
    10    5   35 1    
    11    5   76 1    
    12    6    7 1    
    13    6   77 1    
    14    6   78 1    
    15    7    8 1    
    16    8    9 1    
    17    8   79 1    
    18    8   80 1    
    19    9   10 ar   
    20    9   14 ar   
    21   10   11 ar   
    22   10   81 1    
    23   11   12 ar   
    24   11   71 1    
    25   12   13 ar   
    26   12   82 1    
    27   13   14 ar   
    28   13   15 1    
    29   14   83 1    
    30   15   16 1    
    31   15   84 1    
    32   15   85 1    
    33   16   17 1    
    34   17   18 1    
    35   17   86 1    
    36   17   87 1    
    37   18   19 1    
    38   18   37 1    
    39   18   88 1    
    40   19   20 am   BACKBONE|DICT|INTERRES
    41   19   89 1    
    42   20   21 2    
    43   20   22 1    
    44   22   23 1    
    45   22   24 1    
    46   22   90 1    
    47   23   91 1    
    48   23   92 1    
    49   23   93 1    
    50   24   25 am   BACKBONE|DICT|INTERRES
    51   24   94 1    
    52   25   26 2    
    53   25   27 1    
    54   27   28 1    
    55   27   29 1    
    56   27   95 1    
    57   28   96 1    
    58   28   97 1    
    59   28   98 1    
    60   29   30 am   BACKBONE|DICT|INTERRES
    61   29   99 1    
    62   30   31 2    
    63   30   32 1    
    64   32   33 1    
    65   32   34 1    
    66   32  100 1    
    67   33  101 1    
    68   33  102 1    
    69   33  103 1    
    70   34   35 am   BACKBONE|DICT|INTERRES
    71   34  104 1    
    72   35   36 2    
    73   37   38 2    
    74   37   39 am   BACKBONE|DICT|INTERRES
    75   39   40 1    
    76   39  105 1    
    77   40   41 1    
    78   40   42 1    
    79   40  106 1    
    80   41  107 1    
    81   41  108 1    
    82   41  109 1    
    83   42   43 2    
    84   42   44 am   BACKBONE|DICT|INTERRES
    85   44   45 1    
    86   44  110 1    
    87   45   46 1    
    88   45   47 1    
    89   45  111 1    
    90   46  112 1    
    91   46  113 1    
    92   46  114 1    
    93   47   48 2    
    94   47   49 am   BACKBONE|DICT|INTERRES
    95   49   50 1    
    96   49  115 1    
    97   50   51 1    
    98   50   52 1    
    99   50  116 1    
   100   51  117 1    
   101   51  118 1    
   102   51  119 1    
   103   52   53 2    
   104   52   54 am   BACKBONE|DICT|INTERRES
   105   54   55 1    
   106   54  120 1    
   107   55   56 1    
   108   55   57 1    
   109   55  121 1    
   110   56  122 1    
   111   56  123 1    
   112   56  124 1    
   113   57   58 2    
   114   57   59 am   BACKBONE|DICT|INTERRES
   115   59   60 1    
   116   59  125 1    
   117   60   61 1    
   118   60   62 1    
   119   60  126 1    
   120   61  127 1    
   121   61  128 1    
   122   61  129 1    
   123   62   63 2    
   124   62   64 am   BACKBONE|DICT|INTERRES
   125   64   65 1    
   126   64  130 1    
   127   65   66 1    
   128   65   69 1    
   129   65  131 1    
   130   66   67 am   BACKBONE|DICT|INTERRES
   131   66   68 2    
   132   67  132 1    
   133   67  133 1    
   134   69   70 1    
   135   69  134 1    
   136   69  135 1    
   137   70   71 1    
   138   71  136 1    
   139   71  137 1    
@<TRIPOS>SUBSTRUCTURE
     1 UNK         1 GROUP             0       ****    0 ROOT    
