@<TRIPOS>MOLECULE
3R137
137   139    1
SMALL
USER_CHARGES


@<TRIPOS>ATOM
      1 CA         22.7411   -4.0325   -2.9799 C.3       0 UNK        -0.2020 
      2 C          23.8300   -3.9089   -1.9257 C.2       0 UNK         0.4855 
      3 O          23.6319   -4.3217   -0.7836 O.2       0 UNK        -0.5197 
      4 N          24.9693   -3.3085   -2.2897 N.am      1 UNK        -0.4892 
      5 CA         26.1216   -3.0593   -1.4136 C.3       1 UNK         0.0835 
      6 C6         27.4400   -3.3649   -2.1721 C.3       12 UNK        -0.0855 
      7 S7         28.8148   -3.8110   -1.0595 S.3       12 UNK        -0.2931 
      8 C8         30.0201   -2.4818   -1.4130 C.3       12 UNK         0.0378 
      9 C9         30.6246   -2.4726   -2.8211 C.ar      12 UNK        -0.0802 
     10 C10        31.3761   -1.3574   -3.2077 C.ar      12 UNK        -0.0944 
     11 C11        31.9814   -1.3035   -4.4660 C.ar      12 UNK        -0.0787 
     12 C12        31.8203   -2.3689   -5.3538 C.ar      12 UNK        -0.0862 
     13 C13        31.0752   -3.4909   -4.9881 C.ar      12 UNK        -0.0733 
     14 C14        30.4861   -3.5402   -3.7208 C.ar      12 UNK        -0.0832 
     15 C15        30.9413   -4.6660   -5.9481 C.3       12 UNK         0.0240 
     16 S16        29.9858   -4.2500   -7.4423 S.3       12 UNK        -0.2522 
     17 C17        28.3393   -3.8915   -6.7495 C.3       12 UNK        -0.0967 
     18 CA         27.6898   -2.6227   -7.3548 C.3       5 UNK         0.0660 
     19 N          26.2401   -2.6421   -7.1299 N.am      5 UNK        -0.4015 
     20 C          25.3625   -1.7343   -7.5741 C.2       4 UNK         0.4946 
     21 O          25.6727   -0.7681   -8.2685 O.2       4 UNK        -0.5353 
     22 CA         23.9027   -1.8718   -7.1101 C.3       4 UNK         0.0277 
     23 CB         23.5262   -3.2920   -6.6278 C.3       4 UNK        -0.1981 
     24 N          23.5819   -0.8653   -6.0888 N.am      4 UNK        -0.4209 
     25 C          24.1776   -0.7080   -4.8975 C.2       3 UNK         0.4942 
     26 O          25.0907   -1.4365   -4.4915 O.2       3 UNK        -0.5208 
     27 CA         23.6785    0.4412   -4.0038 C.3       3 UNK         0.0250 
     28 CB         22.1859    0.7812   -4.2005 C.3       3 UNK        -0.1990 
     29 N          23.9274    0.0605   -2.6197 N.am      3 UNK        -0.4232 
     30 C          24.1168    0.8651   -1.5674 C.2       2 UNK         0.4993 
     31 O          24.0420    2.0929   -1.6184 O.2       2 UNK        -0.5286 
     32 CA         24.4422    0.1750   -0.2244 C.3       2 UNK         0.0209 
     33 CB         23.2305    0.2342    0.7203 C.3       2 UNK        -0.1931 
     34 N          24.8384   -1.2275   -0.4054 N.am      2 UNK        -0.4546 
     35 C          26.0360   -1.6159   -0.8672 C.2       1 UNK         0.5154 
     36 O          26.9975   -0.8523   -0.9439 O.2       1 UNK        -0.5181 
     37 C          28.3612   -1.3200   -6.8540 C.2       5 UNK         0.5014 
     38 O          29.2695   -0.8073   -7.5144 O.2       5 UNK        -0.5248 
     39 N          27.8632   -0.7749   -5.7330 N.am      6 UNK        -0.4434 
     40 CA         28.3149    0.5012   -5.1757 C.3       6 UNK         0.0363 
     41 CB         27.9747    0.5530   -3.6806 C.3       6 UNK        -0.1936 
     42 C          27.7241    1.7232   -5.9009 C.2       6 UNK         0.5081 
     43 O          28.3494    2.7823   -5.8812 O.2       6 UNK        -0.5248 
     44 N          26.5492    1.5694   -6.5310 N.am      7 UNK        -0.4718 
     45 CA         25.9064    2.6158   -7.3350 C.3       7 UNK         0.0273 
     46 CB         24.3921    2.3672   -7.4234 C.3       7 UNK        -0.1935 
     47 C          26.5315    2.7034   -8.7349 C.2       7 UNK         0.5018 
     48 O          26.7599    3.8071   -9.2305 O.2       7 UNK        -0.5186 
     49 N          26.8376    1.5373   -9.3226 N.am      8 UNK        -0.4240 
     50 CA         27.6374    1.3889  -10.5408 C.3       8 UNK         0.0235 
     51 CB         27.5807   -0.0756  -11.0049 C.3       8 UNK        -0.2000 
     52 C          29.0988    1.8306  -10.3440 C.2       8 UNK         0.4941 
     53 O          29.7227    2.2805  -11.3054 O.2       8 UNK        -0.5273 
     54 N          29.5932    1.7047   -9.1023 N.am      9 UNK        -0.4262 
     55 CA         30.9192    2.0790   -8.6107 C.3       9 UNK         0.0264 
     56 CB         31.1270    3.6064   -8.6846 C.3       9 UNK        -0.1955 
     57 C          32.0258    1.2764   -9.3101 C.2       9 UNK         0.5031 
     58 O          32.9011    1.8540   -9.9567 O.2       9 UNK        -0.5390 
     59 N          31.9612   -0.0551   -9.1632 N.am      10 UNK        -0.4204 
     60 CA         32.9338   -0.9984   -9.7330 C.3       10 UNK         0.0237 
     61 CB         32.3711   -2.4245   -9.6327 C.3       10 UNK        -0.1985 
     62 C          34.3418   -0.9225   -9.1025 C.2       10 UNK         0.4970 
     63 O          35.2871   -1.4573   -9.6831 O.2       10 UNK        -0.4914 
     64 N          34.4541   -0.2770   -7.9351 N.am      11 UNK        -0.4285 
     65 CA         35.7015    0.0120   -7.2156 C.3       11 UNK         0.1007 
     66 C          36.6567    0.9289   -8.0276 C.2       11 UNK         0.5703 
     67 N          37.9482    0.6277   -8.0399 N.am      11 UNK        -0.7361 
     68 O          36.2443    1.9335   -8.6036 O.2       11 UNK        -0.4986 
     69 C69        35.4018    0.6345   -5.8259 C.3       12 UNK        -0.0947 
     70 S70        34.6043   -0.5569   -4.7032 S.3       12 UNK        -0.2240 
     71 C71        32.8452   -0.1196   -4.8636 C.3       12 UNK         0.0194 
     72 H72        22.8597   -4.9611   -3.5376 H         1 UNK         0.0906 
     73 H73        22.7679   -3.1999   -3.6814 H         1 UNK         0.0906 
     74 H74        21.7569   -4.0401   -2.5120 H         1 UNK         0.0906 
     75 H75        25.0586   -2.9224   -3.2265 H         1 UNK         0.3140 
     76 H76        26.0669   -3.7256   -0.5495 H         1 UNK         0.1085 
     77 H77        27.7200   -2.5458   -2.8371 H         1 UNK         0.0836 
     78 H78        27.2956   -4.2266   -2.8260 H         1 UNK         0.0836 
     79 H79        29.5454   -1.5199   -1.2164 H         1 UNK         0.0731 
     80 H80        30.8361   -2.5701   -0.6948 H         1 UNK         0.0731 
     81 H81        31.5073   -0.5350   -2.5175 H         1 UNK         0.1312 
     82 H82        32.2952   -2.3337   -6.3234 H         1 UNK         0.1406 
     83 H83        29.9303   -4.4229   -3.4400 H         1 UNK         0.1631 
     84 H84        30.4766   -5.5224   -5.4570 H         1 UNK         0.0717 
     85 H85        31.9376   -4.9917   -6.2501 H         1 UNK         0.0717 
     86 H86        27.7231   -4.7659   -6.9660 H         1 UNK         0.0934 
     87 H87        28.3807   -3.8245   -5.6612 H         1 UNK         0.0934 
     88 H88        27.8275   -2.6517   -8.4378 H         1 UNK         0.0739 
     89 H89        25.8883   -3.3793   -6.5377 H         1 UNK         0.3093 
     90 H90        23.2845   -1.6447   -7.9802 H         1 UNK         0.0818 
     91 H91        23.7160   -4.0327   -7.4059 H         1 UNK         0.0819 
     92 H92        24.0778   -3.5981   -5.7393 H         1 UNK         0.0819 
     93 H93        22.4644   -3.3507   -6.3883 H         1 UNK         0.0819 
     94 H94        22.8458   -0.2195   -6.3375 H         1 UNK         0.3041 
     95 H95        24.2841    1.3190   -4.2373 H         1 UNK         0.0784 
     96 H96        21.9888    1.1741   -5.1982 H         1 UNK         0.0793 
     97 H97        21.5501   -0.0930   -4.0528 H         1 UNK         0.0793 
     98 H98        21.8604    1.5467   -3.4957 H         1 UNK         0.0793 
     99 H99        24.0921   -0.9267   -2.4876 H         1 UNK         0.3024 
    100 H100       25.2686    0.7235    0.2341 H         1 UNK         0.1171 
    101 H101       23.4618   -0.2067    1.6901 H         1 UNK         0.0786 
    102 H102       22.9259    1.2663    0.8998 H         1 UNK         0.0786 
    103 H103       22.3691   -0.2926    0.3076 H         1 UNK         0.0786 
    104 H104       24.1085   -1.9243   -0.3342 H         1 UNK         0.2977 
    105 H105       27.0871   -1.2287   -5.2643 H         1 UNK         0.3127 
    106 H106       29.4019    0.5565   -5.2720 H         1 UNK         0.0770 
    107 H107       28.2971    1.4954   -3.2362 H         1 UNK         0.0814 
    108 H108       26.9036    0.4577   -3.5010 H         1 UNK         0.0814 
    109 H109       28.4794   -0.2446   -3.1374 H         1 UNK         0.0814 
    110 H110       26.1425    0.6457   -6.5791 H         1 UNK         0.2983 
    111 H111       26.0585    3.5801   -6.8442 H         1 UNK         0.0947 
    112 H112       24.1597    1.4134   -7.8968 H         1 UNK         0.0806 
    113 H113       23.9073    3.1459   -8.0138 H         1 UNK         0.0806 
    114 H114       23.9301    2.3814   -6.4373 H         1 UNK         0.0806 
    115 H115       26.5221    0.6756   -8.8777 H         1 UNK         0.3000 
    116 H116       27.1969    2.0201  -11.3155 H         1 UNK         0.0850 
    117 H117       28.1416   -0.2146  -11.9301 H         1 UNK         0.0810 
    118 H118       26.5549   -0.3919  -11.1953 H         1 UNK         0.0810 
    119 H119       28.0051   -0.7504  -10.2601 H         1 UNK         0.0810 
    120 H120       29.0073    1.2330   -8.4255 H         1 UNK         0.3040 
    121 H121       30.9455    1.7976   -7.5566 H         1 UNK         0.0766 
    122 H122       31.1303    3.9692   -9.7129 H         1 UNK         0.0812 
    123 H123       32.0800    3.8911   -8.2372 H         1 UNK         0.0812 
    124 H124       30.3424    4.1367   -8.1444 H         1 UNK         0.0812 
    125 H125       31.1814   -0.4473   -8.6447 H         1 UNK         0.3205 
    126 H126       33.0463   -0.7551  -10.7917 H         1 UNK         0.0754 
    127 H127       33.0252   -3.1391  -10.1342 H         1 UNK         0.0769 
    128 H128       31.3891   -2.5020  -10.1003 H         1 UNK         0.0769 
    129 H129       32.2757   -2.7463   -8.5967 H         1 UNK         0.0769 
    130 H130       33.6250    0.1491   -7.5569 H         1 UNK         0.2981 
    131 H131       36.2079   -0.9432   -7.0615 H         1 UNK         0.0541 
    132 H132       38.2989   -0.1861   -7.5590 H         1 UNK         0.3459 
    133 H133       38.5847    1.2222   -8.5475 H         1 UNK         0.3459 
    134 H134       34.7872    1.5322   -5.9177 H         1 UNK         0.0612 
    135 H135       36.3283    0.9498   -5.3420 H         1 UNK         0.0612 
    136 H136       32.6297    0.7504   -4.2415 H         1 UNK         0.0624 
    137 H137       32.6120    0.1662   -5.8892 H         1 UNK         0.0624 
@<TRIPOS>BOND
     1    1    2 1    
     2    1   72 1    
     3    1   73 1    
     4    1   74 1    
     5    2    3 2    
     6    2    4 am   BACKBONE|DICT|INTERRES
     7    4    5 1    
     8    4   75 1    
     9    5    6 1    
    10    5   35 1    
    11    5   76 1    
    12    6    7 1    
    13    6   77 1    
    14    6   78 1    
    15    7    8 1    
    16    8    9 1    
    17    8   79 1    
    18    8   80 1    
    19    9   10 ar   
    20    9   14 ar   
    21   10   11 ar   
    22   10   81 1    
    23   11   12 ar   
    24   11   71 1    
    25   12   13 ar   
    26   12   82 1    
    27   13   14 ar   
    28   13   15 1    
    29   14   83 1    
    30   15   16 1    
    31   15   84 1    
    32   15   85 1    
    33   16   17 1    
    34   17   18 1    
    35   17   86 1    
    36   17   87 1    
    37   18   19 1    
    38   18   37 1    
    39   18   88 1    
    40   19   20 am   BACKBONE|DICT|INTERRES
    41   19   89 1    
    42   20   21 2    
    43   20   22 1    
    44   22   23 1    
    45   22   24 1    
    46   22   90 1    
    47   23   91 1    
    48   23   92 1    
    49   23   93 1    
    50   24   25 am   BACKBONE|DICT|INTERRES
    51   24   94 1    
    52   25   26 2    
    53   25   27 1    
    54   27   28 1    
    55   27   29 1    
    56   27   95 1    
    57   28   96 1    
    58   28   97 1    
    59   28   98 1    
    60   29   30 am   BACKBONE|DICT|INTERRES
    61   29   99 1    
    62   30   31 2    
    63   30   32 1    
    64   32   33 1    
    65   32   34 1    
    66   32  100 1    
    67   33  101 1    
    68   33  102 1    
    69   33  103 1    
    70   34   35 am   BACKBONE|DICT|INTERRES
    71   34  104 1    
    72   35   36 2    
    73   37   38 2    
    74   37   39 am   BACKBONE|DICT|INTERRES
    75   39   40 1    
    76   39  105 1    
    77   40   41 1    
    78   40   42 1    
    79   40  106 1    
    80   41  107 1    
    81   41  108 1    
    82   41  109 1    
    83   42   43 2    
    84   42   44 am   BACKBONE|DICT|INTERRES
    85   44   45 1    
    86   44  110 1    
    87   45   46 1    
    88   45   47 1    
    89   45  111 1    
    90   46  112 1    
    91   46  113 1    
    92   46  114 1    
    93   47   48 2    
    94   47   49 am   BACKBONE|DICT|INTERRES
    95   49   50 1    
    96   49  115 1    
    97   50   51 1    
    98   50   52 1    
    99   50  116 1    
   100   51  117 1    
   101   51  118 1    
   102   51  119 1    
   103   52   53 2    
   104   52   54 am   BACKBONE|DICT|INTERRES
   105   54   55 1    
   106   54  120 1    
   107   55   56 1    
   108   55   57 1    
   109   55  121 1    
   110   56  122 1    
   111   56  123 1    
   112   56  124 1    
   113   57   58 2    
   114   57   59 am   BACKBONE|DICT|INTERRES
   115   59   60 1    
   116   59  125 1    
   117   60   61 1    
   118   60   62 1    
   119   60  126 1    
   120   61  127 1    
   121   61  128 1    
   122   61  129 1    
   123   62   63 2    
   124   62   64 am   BACKBONE|DICT|INTERRES
   125   64   65 1    
   126   64  130 1    
   127   65   66 1    
   128   65   69 1    
   129   65  131 1    
   130   66   67 am   BACKBONE|DICT|INTERRES
   131   66   68 2    
   132   67  132 1    
   133   67  133 1    
   134   69   70 1    
   135   69  134 1    
   136   69  135 1    
   137   70   71 1    
   138   71  136 1    
   139   71  137 1    
@<TRIPOS>SUBSTRUCTURE
     1 UNK         1 GROUP             0       ****    0 ROOT    
