@<TRIPOS>MOLECULE
3R137
137   139    1
SMALL
USER_CHARGES


@<TRIPOS>ATOM
      1 CA         30.1778   -0.6481    1.6909 C.3       0 UNK        -0.2020 
      2 C          29.4931   -1.2482    0.4722 C.2       0 UNK         0.4855 
      3 O          29.1699   -0.5207   -0.4667 O.2       0 UNK        -0.5197 
      4 N          29.2791   -2.5695    0.4779 N.am      1 UNK        -0.4892 
      5 CA         28.6260   -3.3188   -0.6009 C.3       1 UNK         0.0835 
      6 C6         28.8438   -4.8524   -0.4708 C.3       12 UNK        -0.0855 
      7 S7         30.5899   -5.3278   -0.1951 S.3       12 UNK        -0.2931 
      8 C8         31.1840   -5.6693   -1.8846 C.3       12 UNK         0.0378 
      9 C9         31.0033   -4.4698   -2.8028 C.ar      12 UNK        -0.0802 
     10 C10        31.6604   -3.2656   -2.5302 C.ar      12 UNK        -0.0944 
     11 C11        31.4360   -2.1390   -3.3261 C.ar      12 UNK        -0.0787 
     12 C12        30.5623   -2.2278   -4.4145 C.ar      12 UNK        -0.0862 
     13 C13        29.9315   -3.4378   -4.7184 C.ar      12 UNK        -0.0733 
     14 C14        30.1515   -4.5539   -3.9075 C.ar      12 UNK        -0.0832 
     15 C15        29.0249   -3.5493   -5.9309 C.3       12 UNK         0.0240 
     16 S16        27.2702   -3.5734   -5.4546 S.3       12 UNK        -0.2522 
     17 C17        26.4965   -3.5470   -7.1075 C.3       12 UNK        -0.0967 
     18 CA         25.9334   -2.1784   -7.5708 C.3       5 UNK         0.0660 
     19 N          24.7403   -1.7543   -6.8350 N.am      5 UNK        -0.4015 
     20 C          23.7382   -1.0621   -7.4001 C.2       4 UNK         0.4946 
     21 O          23.7036   -0.7546   -8.5923 O.2       4 UNK        -0.5353 
     22 CA         22.5763   -0.6257   -6.4928 C.3       4 UNK         0.0277 
     23 CB         21.5597   -1.7674   -6.3285 C.3       4 UNK        -0.1981 
     24 N          23.0102   -0.1636   -5.1751 N.am      4 UNK        -0.4209 
     25 C          23.7787    0.9124   -4.9515 C.2       3 UNK         0.4942 
     26 O          24.1942    1.6590   -5.8367 O.2       3 UNK        -0.5208 
     27 CA         24.1775    1.1787   -3.4894 C.3       3 UNK         0.0250 
     28 CB         23.1515    2.1010   -2.8116 C.3       3 UNK        -0.1990 
     29 N          24.3398   -0.0442   -2.6935 N.am      3 UNK        -0.4232 
     30 C          25.2276   -1.0112   -2.9619 C.2       2 UNK         0.4993 
     31 O          25.9918   -0.9902   -3.9294 O.2       2 UNK        -0.5286 
     32 CA         25.2195   -2.2292   -2.0362 C.3       2 UNK         0.0209 
     33 CB         24.3979   -3.3737   -2.6535 C.3       2 UNK        -0.1931 
     34 N          26.5974   -2.6704   -1.8353 N.am      2 UNK        -0.4546 
     35 C          27.1225   -2.9835   -0.6456 C.2       1 UNK         0.5154 
     36 O          26.4682   -3.0241    0.4006 O.2       1 UNK        -0.5181 
     37 C          26.9863   -1.0560   -7.6091 C.2       5 UNK         0.5014 
     38 O          27.5959   -0.8501   -8.6583 O.2       5 UNK        -0.5248 
     39 N          27.1614   -0.3191   -6.4999 N.am      6 UNK        -0.4434 
     40 CA         28.1120    0.7940   -6.3758 C.3       6 UNK         0.0363 
     41 CB         28.1631    1.2614   -4.9137 C.3       6 UNK        -0.1936 
     42 C          27.8297    1.9790   -7.3209 C.2       6 UNK         0.5081 
     43 O          28.7384    2.7577   -7.6043 O.2       6 UNK        -0.5248 
     44 N          26.5901    2.0889   -7.8172 N.am      7 UNK        -0.4718 
     45 CA         26.1972    3.0212   -8.8753 C.3       7 UNK         0.0273 
     46 CB         24.6626    3.0751   -8.9468 C.3       7 UNK        -0.1935 
     47 C          26.7844    2.6716  -10.2583 C.2       7 UNK         0.5018 
     48 O          26.8849    3.5665  -11.0990 O.2       7 UNK        -0.5186 
     49 N          27.1376    1.3972  -10.4815 N.am      8 UNK        -0.4240 
     50 CA         27.6761    0.8838  -11.7438 C.3       8 UNK         0.0235 
     51 CB         26.8459   -0.3343  -12.1830 C.3       8 UNK        -0.2000 
     52 C          29.1603    0.5022  -11.6280 C.2       8 UNK         0.4941 
     53 O          29.9127    0.7298  -12.5769 O.2       8 UNK        -0.5273 
     54 N          29.5535   -0.0890  -10.4920 N.am      9 UNK        -0.4262 
     55 CA         30.9174   -0.5294  -10.1930 C.3       9 UNK         0.0264 
     56 CB         30.8776   -1.4311   -8.9452 C.3       9 UNK        -0.1955 
     57 C          31.8896    0.6429   -9.9707 C.2       9 UNK         0.5031 
     58 O          31.4650    1.7591   -9.6652 O.2       9 UNK        -0.5390 
     59 N          33.1928    0.3484  -10.0800 N.am      10 UNK        -0.4204 
     60 CA         34.2803    1.2785   -9.7518 C.3       10 UNK         0.0237 
     61 CB         35.6042    0.7372  -10.3161 C.3       10 UNK        -0.1985 
     62 C          34.4057    1.5449   -8.2390 C.2       10 UNK         0.4970 
     63 O          34.8541    2.6244   -7.8519 O.2       10 UNK        -0.4914 
     64 N          34.0089    0.5614   -7.4205 N.am      11 UNK        -0.4285 
     65 CA         33.8783    0.6666   -5.9641 C.3       11 UNK         0.1007 
     66 C          32.7133    1.6211   -5.5852 C.2       11 UNK         0.5703 
     67 N          32.9835    2.6773   -4.8300 N.am      11 UNK        -0.7361 
     68 O          31.5630    1.3798   -5.9402 O.2       11 UNK        -0.4986 
     69 C69        33.6987   -0.7458   -5.3493 C.3       12 UNK        -0.0947 
     70 S70        33.8585   -0.7820   -3.5308 S.3       12 UNK        -0.2240 
     71 C71        32.1176   -0.8213   -2.9888 C.3       12 UNK         0.0194 
     72 H72        31.1040   -0.1561    1.3955 H         1 UNK         0.0906 
     73 H73        29.5308    0.0945    2.1569 H         1 UNK         0.0906 
     74 H74        30.4191   -1.4044    2.4376 H         1 UNK         0.0906 
     75 H75        29.5596   -3.1214    1.2758 H         1 UNK         0.3140 
     76 H76        29.0672   -2.9846   -1.5409 H         1 UNK         0.1085 
     77 H77        28.4671   -5.3662   -1.3574 H         1 UNK         0.0836 
     78 H78        28.2689   -5.2470    0.3696 H         1 UNK         0.0836 
     79 H79        32.2418   -5.9325   -1.8436 H         1 UNK         0.0731 
     80 H80        30.6628   -6.5452   -2.2744 H         1 UNK         0.0731 
     81 H81        32.3209   -3.1965   -1.6765 H         1 UNK         0.1312 
     82 H82        30.3822   -1.3566   -5.0305 H         1 UNK         0.1406 
     83 H83        29.6455   -5.4832   -4.1329 H         1 UNK         0.1631 
     84 H84        29.2634   -4.4601   -6.4823 H         1 UNK         0.0717 
     85 H85        29.2072   -2.7189   -6.6139 H         1 UNK         0.0717 
     86 H86        27.2144   -3.9133   -7.8440 H         1 UNK         0.0934 
     87 H87        25.6932   -4.2853   -7.1080 H         1 UNK         0.0934 
     88 H88        25.6382   -2.3355   -8.6112 H         1 UNK         0.0739 
     89 H89        24.7329   -1.9305   -5.8401 H         1 UNK         0.3093 
     90 H90        22.0735    0.2101   -6.9845 H         1 UNK         0.0818 
     91 H91        20.6837   -1.4415   -5.7675 H         1 UNK         0.0819 
     92 H92        21.2070   -2.1173   -7.2999 H         1 UNK         0.0819 
     93 H93        21.9912   -2.6251   -5.8107 H         1 UNK         0.0819 
     94 H94        22.7117   -0.7070   -4.3789 H         1 UNK         0.3041 
     95 H95        25.1392    1.6940   -3.5012 H         1 UNK         0.0784 
     96 H96        23.0292    3.0275   -3.3748 H         1 UNK         0.0793 
     97 H97        22.1695    1.6318   -2.7393 H         1 UNK         0.0793 
     98 H98        23.4684    2.3764   -1.8055 H         1 UNK         0.0793 
     99 H99        23.7386   -0.1392   -1.8871 H         1 UNK         0.3024 
    100 H100       24.7687   -1.9377   -1.0846 H         1 UNK         0.1171 
    101 H101       23.3623   -3.0722   -2.8154 H         1 UNK         0.0786 
    102 H102       24.3824   -4.2449   -1.9984 H         1 UNK         0.0786 
    103 H103       24.8021   -3.6890   -3.6162 H         1 UNK         0.0786 
    104 H104       27.1881   -2.5979   -2.6552 H         1 UNK         0.2977 
    105 H105       26.6562   -0.5735   -5.6526 H         1 UNK         0.3127 
    106 H106       29.0979    0.4074   -6.6389 H         1 UNK         0.0770 
    107 H107       27.2062    1.6704   -4.5917 H         1 UNK         0.0814 
    108 H108       28.9154    2.0402   -4.7818 H         1 UNK         0.0814 
    109 H109       28.4246    0.4428   -4.2424 H         1 UNK         0.0814 
    110 H110       25.8730    1.4679   -7.4637 H         1 UNK         0.2983 
    111 H111       26.5640    4.0145   -8.6073 H         1 UNK         0.0947 
    112 H112       24.3295    3.7666   -9.7220 H         1 UNK         0.0806 
    113 H113       24.2340    3.4164   -8.0043 H         1 UNK         0.0806 
    114 H114       24.2352    2.0973   -9.1738 H         1 UNK         0.0806 
    115 H115       27.0650    0.7315   -9.7190 H         1 UNK         0.3000 
    116 H116       27.5961    1.6415  -12.5262 H         1 UNK         0.0850 
    117 H117       27.2191   -0.7436  -13.1228 H         1 UNK         0.0810 
    118 H118       25.8013   -0.0643  -12.3390 H         1 UNK         0.0810 
    119 H119       26.8766   -1.1345  -11.4420 H         1 UNK         0.0810 
    120 H120       28.8575   -0.2720   -9.7717 H         1 UNK         0.3040 
    121 H121       31.2724   -1.1176  -11.0420 H         1 UNK         0.0766 
    122 H122       30.5723   -0.8741   -8.0584 H         1 UNK         0.0812 
    123 H123       30.1798   -2.2587   -9.0756 H         1 UNK         0.0812 
    124 H124       31.8551   -1.8666   -8.7362 H         1 UNK         0.0812 
    125 H125       33.4615   -0.5852  -10.3581 H         1 UNK         0.3205 
    126 H126       34.0686    2.2343  -10.2365 H         1 UNK         0.0754 
    127 H127       36.4258    1.4245  -10.1089 H         1 UNK         0.0769 
    128 H128       35.5537    0.6139  -11.3982 H         1 UNK         0.0769 
    129 H129       35.8682   -0.2267   -9.8790 H         1 UNK         0.0769 
    130 H130       33.6414   -0.2804   -7.8341 H         1 UNK         0.2981 
    131 H131       34.8138    1.0829   -5.5846 H         1 UNK         0.0541 
    132 H132       32.2320    3.2953   -4.5692 H         1 UNK         0.3459 
    133 H133       33.9250    2.8762   -4.5302 H         1 UNK         0.3459 
    134 H134       34.4715   -1.4111   -5.7374 H         1 UNK         0.0612 
    135 H135       32.7523   -1.1870   -5.6606 H         1 UNK         0.0612 
    136 H136       32.0849   -0.6679   -1.9090 H         1 UNK         0.0624 
    137 H137       31.5728    0.0162   -3.4256 H         1 UNK         0.0624 
@<TRIPOS>BOND
     1    1    2 1    
     2    1   72 1    
     3    1   73 1    
     4    1   74 1    
     5    2    3 2    
     6    2    4 am   BACKBONE|DICT|INTERRES
     7    4    5 1    
     8    4   75 1    
     9    5    6 1    
    10    5   35 1    
    11    5   76 1    
    12    6    7 1    
    13    6   77 1    
    14    6   78 1    
    15    7    8 1    
    16    8    9 1    
    17    8   79 1    
    18    8   80 1    
    19    9   10 ar   
    20    9   14 ar   
    21   10   11 ar   
    22   10   81 1    
    23   11   12 ar   
    24   11   71 1    
    25   12   13 ar   
    26   12   82 1    
    27   13   14 ar   
    28   13   15 1    
    29   14   83 1    
    30   15   16 1    
    31   15   84 1    
    32   15   85 1    
    33   16   17 1    
    34   17   18 1    
    35   17   86 1    
    36   17   87 1    
    37   18   19 1    
    38   18   37 1    
    39   18   88 1    
    40   19   20 am   BACKBONE|DICT|INTERRES
    41   19   89 1    
    42   20   21 2    
    43   20   22 1    
    44   22   23 1    
    45   22   24 1    
    46   22   90 1    
    47   23   91 1    
    48   23   92 1    
    49   23   93 1    
    50   24   25 am   BACKBONE|DICT|INTERRES
    51   24   94 1    
    52   25   26 2    
    53   25   27 1    
    54   27   28 1    
    55   27   29 1    
    56   27   95 1    
    57   28   96 1    
    58   28   97 1    
    59   28   98 1    
    60   29   30 am   BACKBONE|DICT|INTERRES
    61   29   99 1    
    62   30   31 2    
    63   30   32 1    
    64   32   33 1    
    65   32   34 1    
    66   32  100 1    
    67   33  101 1    
    68   33  102 1    
    69   33  103 1    
    70   34   35 am   BACKBONE|DICT|INTERRES
    71   34  104 1    
    72   35   36 2    
    73   37   38 2    
    74   37   39 am   BACKBONE|DICT|INTERRES
    75   39   40 1    
    76   39  105 1    
    77   40   41 1    
    78   40   42 1    
    79   40  106 1    
    80   41  107 1    
    81   41  108 1    
    82   41  109 1    
    83   42   43 2    
    84   42   44 am   BACKBONE|DICT|INTERRES
    85   44   45 1    
    86   44  110 1    
    87   45   46 1    
    88   45   47 1    
    89   45  111 1    
    90   46  112 1    
    91   46  113 1    
    92   46  114 1    
    93   47   48 2    
    94   47   49 am   BACKBONE|DICT|INTERRES
    95   49   50 1    
    96   49  115 1    
    97   50   51 1    
    98   50   52 1    
    99   50  116 1    
   100   51  117 1    
   101   51  118 1    
   102   51  119 1    
   103   52   53 2    
   104   52   54 am   BACKBONE|DICT|INTERRES
   105   54   55 1    
   106   54  120 1    
   107   55   56 1    
   108   55   57 1    
   109   55  121 1    
   110   56  122 1    
   111   56  123 1    
   112   56  124 1    
   113   57   58 2    
   114   57   59 am   BACKBONE|DICT|INTERRES
   115   59   60 1    
   116   59  125 1    
   117   60   61 1    
   118   60   62 1    
   119   60  126 1    
   120   61  127 1    
   121   61  128 1    
   122   61  129 1    
   123   62   63 2    
   124   62   64 am   BACKBONE|DICT|INTERRES
   125   64   65 1    
   126   64  130 1    
   127   65   66 1    
   128   65   69 1    
   129   65  131 1    
   130   66   67 am   BACKBONE|DICT|INTERRES
   131   66   68 2    
   132   67  132 1    
   133   67  133 1    
   134   69   70 1    
   135   69  134 1    
   136   69  135 1    
   137   70   71 1    
   138   71  136 1    
   139   71  137 1    
@<TRIPOS>SUBSTRUCTURE
     1 UNK         1 GROUP             0       ****    0 ROOT    
