@<TRIPOS>MOLECULE
3R137
137   139    1
SMALL
USER_CHARGES


@<TRIPOS>ATOM
      1 CA         30.3921    0.3564    0.3289 C.3       0 UNK        -0.2020 
      2 C          29.5742   -0.8893    0.0246 C.2       0 UNK         0.4855 
      3 O          28.8511   -1.3698    0.8966 O.2       0 UNK        -0.5197 
      4 N          29.6590   -1.3930   -1.2137 N.am      1 UNK        -0.4892 
      5 CA         29.0166   -2.6053   -1.7595 C.3       1 UNK         0.0835 
      6 C6         29.2975   -3.9059   -0.9568 C.3       12 UNK        -0.0855 
      7 S7         31.0762   -4.2448   -0.7181 S.3       12 UNK        -0.2931 
      8 C8         31.3601   -5.6341   -1.8616 C.3       12 UNK         0.0378 
      9 C9         31.3990   -5.1792   -3.3133 C.ar      12 UNK        -0.0802 
     10 C10        32.4998   -4.4585   -3.7864 C.ar      12 UNK        -0.0944 
     11 C11        32.5582   -4.0414   -5.1190 C.ar      12 UNK        -0.0787 
     12 C12        31.5141   -4.3725   -5.9863 C.ar      12 UNK        -0.0862 
     13 C13        30.3954   -5.0684   -5.5204 C.ar      12 UNK        -0.0733 
     14 C14        30.3464   -5.4794   -4.1843 C.ar      12 UNK        -0.0832 
     15 C15        29.2281   -5.3395   -6.4597 C.3       12 UNK         0.0240 
     16 S16        27.7493   -4.3715   -6.0122 S.3       12 UNK        -0.2522 
     17 C17        28.3886   -2.6595   -5.9566 C.3       12 UNK        -0.0967 
     18 CA         27.5613   -1.6784   -6.8099 C.3       5 UNK         0.0660 
     19 N          26.1375   -1.6690   -6.4630 N.am      5 UNK        -0.4015 
     20 C          25.1823   -1.1956   -7.2741 C.2       4 UNK         0.4946 
     21 O          25.4105   -0.6846   -8.3706 O.2       4 UNK        -0.5353 
     22 CA         23.7355   -1.2689   -6.7638 C.3       4 UNK         0.0277 
     23 CB         23.2613   -2.7266   -6.6385 C.3       4 UNK        -0.1981 
     24 N          23.5626   -0.5765   -5.4868 N.am      4 UNK        -0.4209 
     25 C          23.7452    0.7388   -5.3013 C.2       3 UNK         0.4942 
     26 O          24.0370    1.5270   -6.1998 O.2       3 UNK        -0.5208 
     27 CA         23.5992    1.2684   -3.8645 C.3       3 UNK         0.0250 
     28 CB         22.1506    1.7126   -3.6051 C.3       3 UNK        -0.1990 
     29 N          24.0157    0.3315   -2.8138 N.am      3 UNK        -0.4232 
     30 C          25.2200   -0.2499   -2.7115 C.2       2 UNK         0.4993 
     31 O          26.1106   -0.1284   -3.5576 O.2       2 UNK        -0.5286 
     32 CA         25.4477   -1.0828   -1.4351 C.3       2 UNK         0.0209 
     33 CB         24.4528   -2.2598   -1.3257 C.3       2 UNK        -0.1931 
     34 N          26.8365   -1.5378   -1.2906 N.am      2 UNK        -0.4546 
     35 C          27.5007   -2.4452   -2.0203 C.2       1 UNK         0.5154 
     36 O          26.9713   -3.1439   -2.8838 O.2       1 UNK        -0.5181 
     37 C          28.1757   -0.2680   -6.7602 C.2       5 UNK         0.5014 
     38 O          29.0872    0.0086   -7.5409 O.2       5 UNK        -0.5248 
     39 N          27.6621    0.6135   -5.8891 N.am      6 UNK        -0.4434 
     40 CA         28.0329    2.0307   -5.8499 C.3       6 UNK         0.0363 
     41 CB         27.4176    2.6985   -4.6128 C.3       6 UNK        -0.1936 
     42 C          27.6525    2.7936   -7.1316 C.2       6 UNK         0.5081 
     43 O          28.3535    3.7375   -7.4926 O.2       6 UNK        -0.5248 
     44 N          26.5789    2.3672   -7.8093 N.am      7 UNK        -0.4718 
     45 CA         26.1872    2.8755   -9.1218 C.3       7 UNK         0.0273 
     46 CB         24.6657    2.7368   -9.2976 C.3       7 UNK        -0.1935 
     47 C          26.9397    2.1566  -10.2526 C.2       7 UNK         0.5018 
     48 O          27.5204    2.8243  -11.1086 O.2       7 UNK        -0.5186 
     49 N          26.8938    0.8165  -10.2553 N.am      8 UNK        -0.4240 
     50 CA         27.3693   -0.0192  -11.3611 C.3       8 UNK         0.0235 
     51 CB         26.7499   -1.4219  -11.2463 C.3       8 UNK        -0.2000 
     52 C          28.8979   -0.1228  -11.4725 C.2       8 UNK         0.4941 
     53 O          29.4161   -0.0901  -12.5896 O.2       8 UNK        -0.5273 
     54 N          29.5854   -0.2809  -10.3346 N.am      9 UNK        -0.4262 
     55 CA         31.0254   -0.5531  -10.2630 C.3       9 UNK         0.0264 
     56 CB         31.2303   -1.8724   -9.4954 C.3       9 UNK        -0.1955 
     57 C          31.8190    0.5879   -9.6032 C.2       9 UNK         0.5031 
     58 O          33.0467    0.5036   -9.5567 O.2       9 UNK        -0.5390 
     59 N          31.1192    1.6152   -9.0969 N.am      10 UNK        -0.4204 
     60 CA         31.6294    2.7447   -8.3070 C.3       10 UNK         0.0237 
     61 CB         32.6492    3.5850   -9.1063 C.3       10 UNK        -0.1985 
     62 C          32.1516    2.3367   -6.9129 C.2       10 UNK         0.4970 
     63 O          32.9120    3.0934   -6.3063 O.2       10 UNK        -0.4914 
     64 N          31.7214    1.1724   -6.4097 N.am      11 UNK        -0.4285 
     65 CA         32.1165    0.6037   -5.1108 C.3       11 UNK         0.1007 
     66 C          31.2954    1.1929   -3.9280 C.2       11 UNK         0.5703 
     67 N          31.1955    2.5106   -3.8171 N.am      11 UNK        -0.7361 
     68 O          30.7406    0.4626   -3.1100 O.2       11 UNK        -0.4986 
     69 C69        32.0981   -0.9461   -5.1391 C.3       12 UNK        -0.0947 
     70 S70        33.2127   -1.6490   -6.4010 S.3       12 UNK        -0.2240 
     71 C71        33.7362   -3.2080   -5.6104 C.3       12 UNK         0.0194 
     72 H72        31.1275    0.5603   -0.4489 H         1 UNK         0.0906 
     73 H73        29.7384    1.2236    0.4175 H         1 UNK         0.0906 
     74 H74        30.9270    0.2336    1.2703 H         1 UNK         0.0906 
     75 H75        30.1918   -0.8601   -1.8999 H         1 UNK         0.3140 
     76 H76        29.4673   -2.7389   -2.7444 H         1 UNK         0.1085 
     77 H77        28.8295   -3.8579    0.0276 H         1 UNK         0.0836 
     78 H78        28.8394   -4.7620   -1.4559 H         1 UNK         0.0836 
     79 H79        32.3138   -6.1016   -1.6117 H         1 UNK         0.0731 
     80 H80        30.5997   -6.4015   -1.7085 H         1 UNK         0.0731 
     81 H81        33.3046   -4.2110   -3.1075 H         1 UNK         0.1312 
     82 H82        31.5559   -4.0466   -7.0168 H         1 UNK         0.1406 
     83 H83        29.4802   -6.0178   -3.8237 H         1 UNK         0.1631 
     84 H84        28.9798   -6.4013   -6.4320 H         1 UNK         0.0717 
     85 H85        29.4980   -5.1137   -7.4927 H         1 UNK         0.0717 
     86 H86        28.4224   -2.3341   -4.9171 H         1 UNK         0.0934 
     87 H87        29.4194   -2.6512   -6.3096 H         1 UNK         0.0934 
     88 H88        27.6400   -2.0138   -7.8466 H         1 UNK         0.0739 
     89 H89        25.8906   -2.0452   -5.5582 H         1 UNK         0.3093 
     90 H90        23.1027   -0.7694   -7.5008 H         1 UNK         0.0818 
     91 H91        22.2027   -2.7772   -6.3830 H         1 UNK         0.0819 
     92 H92        23.3899   -3.2598   -7.5816 H         1 UNK         0.0819 
     93 H93        23.8159   -3.2754   -5.8762 H         1 UNK         0.0819 
     94 H94        23.3271   -1.1414   -4.6843 H         1 UNK         0.3041 
     95 H95        24.2386    2.1482   -3.7789 H         1 UNK         0.0784 
     96 H96        21.8207    2.4282   -4.3599 H         1 UNK         0.0793 
     97 H97        21.4582    0.8702   -3.6306 H         1 UNK         0.0793 
     98 H98        22.0513    2.2013   -2.6356 H         1 UNK         0.0793 
     99 H99        23.3458    0.1744   -2.0745 H         1 UNK         0.3024 
    100 H100       25.2715   -0.4135   -0.5913 H         1 UNK         0.1171 
    101 H101       23.4286   -1.9052   -1.2073 H         1 UNK         0.0786 
    102 H102       24.6740   -2.8856   -0.4610 H         1 UNK         0.0786 
    103 H103       24.4713   -2.8960   -2.2111 H         1 UNK         0.0786 
    104 H104       27.3821   -1.0635   -0.5808 H         1 UNK         0.2977 
    105 H105       26.9676    0.3031   -5.2117 H         1 UNK         0.3127 
    106 H106       29.1172    2.0859   -5.7555 H         1 UNK         0.0770 
    107 H107       26.3293    2.6890   -4.6550 H         1 UNK         0.0814 
    108 H108       27.7334    3.7396   -4.5346 H         1 UNK         0.0814 
    109 H109       27.7261    2.1954   -3.6960 H         1 UNK         0.0814 
    110 H110       26.0185    1.6166   -7.4236 H         1 UNK         0.2983 
    111 H111       26.4306    3.9388   -9.1834 H         1 UNK         0.0947 
    112 H112       24.3492    3.1050  -10.2743 H         1 UNK         0.0806 
    113 H113       24.1291    3.3130   -8.5436 H         1 UNK         0.0806 
    114 H114       24.3368    1.7002   -9.2153 H         1 UNK         0.0806 
    115 H115       26.3740    0.3402   -9.5184 H         1 UNK         0.3000 
    116 H116       27.0070    0.4258  -12.2907 H         1 UNK         0.0850 
    117 H117       27.0541   -2.0543  -12.0815 H         1 UNK         0.0810 
    118 H118       25.6606   -1.3757  -11.2548 H         1 UNK         0.0810 
    119 H119       27.0541   -1.9250  -10.3278 H         1 UNK         0.0810 
    120 H120       29.0954   -0.2674   -9.4443 H         1 UNK         0.3040 
    121 H121       31.4421   -0.6811  -11.2640 H         1 UNK         0.0766 
    122 H122       32.2875   -2.1364   -9.4438 H         1 UNK         0.0812 
    123 H123       30.7149   -2.6994   -9.9836 H         1 UNK         0.0812 
    124 H124       30.8624   -1.8064   -8.4712 H         1 UNK         0.0812 
    125 H125       30.1128    1.5631   -9.1742 H         1 UNK         0.3205 
    126 H126       30.7724    3.3890   -8.1210 H         1 UNK         0.0754 
    127 H127       32.8792    4.5163   -8.5873 H         1 UNK         0.0769 
    128 H128       32.2601    3.8520  -10.0889 H         1 UNK         0.0769 
    129 H129       33.5915    3.0558   -9.2493 H         1 UNK         0.0769 
    130 H130       31.0466    0.6358   -6.9408 H         1 UNK         0.2981 
    131 H131       33.1501    0.8928   -4.9121 H         1 UNK         0.0541 
    132 H132       31.6790    3.1066   -4.4747 H         1 UNK         0.3459 
    133 H133       30.6702    2.9077   -3.0553 H         1 UNK         0.3459 
    134 H134       31.0882   -1.3132   -5.3232 H         1 UNK         0.0612 
    135 H135       32.3957   -1.3393   -4.1652 H         1 UNK         0.0612 
    136 H136       34.3132   -3.7925   -6.3278 H         1 UNK         0.0624 
    137 H137       34.4119   -2.9686   -4.7880 H         1 UNK         0.0624 
@<TRIPOS>BOND
     1    1    2 1    
     2    1   72 1    
     3    1   73 1    
     4    1   74 1    
     5    2    3 2    
     6    2    4 am   BACKBONE|DICT|INTERRES
     7    4    5 1    
     8    4   75 1    
     9    5    6 1    
    10    5   35 1    
    11    5   76 1    
    12    6    7 1    
    13    6   77 1    
    14    6   78 1    
    15    7    8 1    
    16    8    9 1    
    17    8   79 1    
    18    8   80 1    
    19    9   10 ar   
    20    9   14 ar   
    21   10   11 ar   
    22   10   81 1    
    23   11   12 ar   
    24   11   71 1    
    25   12   13 ar   
    26   12   82 1    
    27   13   14 ar   
    28   13   15 1    
    29   14   83 1    
    30   15   16 1    
    31   15   84 1    
    32   15   85 1    
    33   16   17 1    
    34   17   18 1    
    35   17   86 1    
    36   17   87 1    
    37   18   19 1    
    38   18   37 1    
    39   18   88 1    
    40   19   20 am   BACKBONE|DICT|INTERRES
    41   19   89 1    
    42   20   21 2    
    43   20   22 1    
    44   22   23 1    
    45   22   24 1    
    46   22   90 1    
    47   23   91 1    
    48   23   92 1    
    49   23   93 1    
    50   24   25 am   BACKBONE|DICT|INTERRES
    51   24   94 1    
    52   25   26 2    
    53   25   27 1    
    54   27   28 1    
    55   27   29 1    
    56   27   95 1    
    57   28   96 1    
    58   28   97 1    
    59   28   98 1    
    60   29   30 am   BACKBONE|DICT|INTERRES
    61   29   99 1    
    62   30   31 2    
    63   30   32 1    
    64   32   33 1    
    65   32   34 1    
    66   32  100 1    
    67   33  101 1    
    68   33  102 1    
    69   33  103 1    
    70   34   35 am   BACKBONE|DICT|INTERRES
    71   34  104 1    
    72   35   36 2    
    73   37   38 2    
    74   37   39 am   BACKBONE|DICT|INTERRES
    75   39   40 1    
    76   39  105 1    
    77   40   41 1    
    78   40   42 1    
    79   40  106 1    
    80   41  107 1    
    81   41  108 1    
    82   41  109 1    
    83   42   43 2    
    84   42   44 am   BACKBONE|DICT|INTERRES
    85   44   45 1    
    86   44  110 1    
    87   45   46 1    
    88   45   47 1    
    89   45  111 1    
    90   46  112 1    
    91   46  113 1    
    92   46  114 1    
    93   47   48 2    
    94   47   49 am   BACKBONE|DICT|INTERRES
    95   49   50 1    
    96   49  115 1    
    97   50   51 1    
    98   50   52 1    
    99   50  116 1    
   100   51  117 1    
   101   51  118 1    
   102   51  119 1    
   103   52   53 2    
   104   52   54 am   BACKBONE|DICT|INTERRES
   105   54   55 1    
   106   54  120 1    
   107   55   56 1    
   108   55   57 1    
   109   55  121 1    
   110   56  122 1    
   111   56  123 1    
   112   56  124 1    
   113   57   58 2    
   114   57   59 am   BACKBONE|DICT|INTERRES
   115   59   60 1    
   116   59  125 1    
   117   60   61 1    
   118   60   62 1    
   119   60  126 1    
   120   61  127 1    
   121   61  128 1    
   122   61  129 1    
   123   62   63 2    
   124   62   64 am   BACKBONE|DICT|INTERRES
   125   64   65 1    
   126   64  130 1    
   127   65   66 1    
   128   65   69 1    
   129   65  131 1    
   130   66   67 am   BACKBONE|DICT|INTERRES
   131   66   68 2    
   132   67  132 1    
   133   67  133 1    
   134   69   70 1    
   135   69  134 1    
   136   69  135 1    
   137   70   71 1    
   138   71  136 1    
   139   71  137 1    
@<TRIPOS>SUBSTRUCTURE
     1 UNK         1 GROUP             0       ****    0 ROOT    
