@<TRIPOS>MOLECULE
3R137
137   139    1
SMALL
USER_CHARGES


@<TRIPOS>ATOM
      1 CA         26.9224   -6.7383   -2.3404 C.3       0 UNK        -0.2020 
      2 C          26.7031   -5.4848   -1.5063 C.2       0 UNK         0.4855 
      3 O          25.9582   -5.5213   -0.5268 O.2       0 UNK        -0.5197 
      4 N          27.3504   -4.3771   -1.8868 N.am      1 UNK        -0.4892 
      5 CA         27.1909   -3.0598   -1.2684 C.3       1 UNK         0.0835 
      6 C6         28.3796   -2.1193   -1.5955 C.3       12 UNK        -0.0855 
      7 S7         29.8602   -2.4687   -0.5831 S.3       12 UNK        -0.2931 
      8 C8         30.6716   -3.8696   -1.4256 C.3       12 UNK         0.0378 
      9 C9         31.0627   -3.5521   -2.8618 C.ar      12 UNK        -0.0802 
     10 C10        32.1734   -2.7469   -3.1307 C.ar      12 UNK        -0.0944 
     11 C11        32.5471   -2.4700   -4.4492 C.ar      12 UNK        -0.0787 
     12 C12        31.7760   -2.9814   -5.4987 C.ar      12 UNK        -0.0862 
     13 C13        30.6621   -3.7922   -5.2491 C.ar      12 UNK        -0.0733 
     14 C14        30.3338   -4.0953   -3.9234 C.ar      12 UNK        -0.0832 
     15 C15        29.8855   -4.3609   -6.4404 C.3       12 UNK         0.0240 
     16 S16        28.1873   -4.9745   -6.1186 S.3       12 UNK        -0.2522 
     17 C17        27.2919   -3.5517   -5.4045 C.3       12 UNK        -0.0967 
     18 CA         26.8441   -2.4769   -6.4284 C.3       5 UNK         0.0660 
     19 N          25.5885   -1.8248   -6.0329 N.am      5 UNK        -0.4015 
     20 C          24.9014   -0.9847   -6.8244 C.2       4 UNK         0.4946 
     21 O          25.2332   -0.7000   -7.9756 O.2       4 UNK        -0.5353 
     22 CA         23.6521   -0.3176   -6.2297 C.3       4 UNK         0.0277 
     23 CB         22.4596   -1.2871   -6.2463 C.3       4 UNK        -0.1981 
     24 N          23.8392    0.2016   -4.8741 N.am      4 UNK        -0.4209 
     25 C          24.7453    1.1075   -4.4862 C.2       3 UNK         0.4942 
     26 O          25.5932    1.5846   -5.2374 O.2       3 UNK        -0.5208 
     27 CA         24.7240    1.5561   -3.0119 C.3       3 UNK         0.0250 
     28 CB         23.7050    2.6914   -2.7953 C.3       3 UNK        -0.1990 
     29 N          24.5383    0.4651   -2.0429 N.am      3 UNK        -0.4232 
     30 C          23.4829   -0.3467   -1.8764 C.2       2 UNK         0.4993 
     31 O          22.4249   -0.2274   -2.4974 O.2       2 UNK        -0.5286 
     32 CA         23.6590   -1.5179   -0.8893 C.3       2 UNK         0.0209 
     33 CB         22.7253   -2.7019   -1.2230 C.3       2 UNK        -0.1931 
     34 N          25.0439   -1.9995   -0.7531 N.am      2 UNK        -0.4546 
     35 C          25.8492   -2.4554   -1.7265 C.2       1 UNK         0.5154 
     36 O          25.5854   -2.4054   -2.9327 O.2       1 UNK        -0.5181 
     37 C          27.9498   -1.4284   -6.6416 C.2       5 UNK         0.5014 
     38 O          28.6208   -1.4426   -7.6740 O.2       5 UNK        -0.5248 
     39 N          28.0854   -0.5171   -5.6671 N.am      6 UNK        -0.4434 
     40 CA         29.0725    0.5584   -5.6688 C.3       6 UNK         0.0363 
     41 CB         29.0317    1.3100   -4.3287 C.3       6 UNK        -0.1936 
     42 C          28.9069    1.5176   -6.8560 C.2       6 UNK         0.5081 
     43 O          29.8997    1.8463   -7.5042 O.2       6 UNK        -0.5248 
     44 N          27.6581    1.9050   -7.1456 N.am      7 UNK        -0.4718 
     45 CA         27.2810    2.7262   -8.2956 C.3       7 UNK         0.0273 
     46 CB         25.8008    3.1235   -8.1792 C.3       7 UNK        -0.1935 
     47 C          27.5541    2.0353   -9.6411 C.2       7 UNK         0.5018 
     48 O          28.0759    2.6834  -10.5486 O.2       7 UNK        -0.5186 
     49 N          27.2181    0.7403   -9.7443 N.am      8 UNK        -0.4240 
     50 CA         27.4452   -0.0764  -10.9400 C.3       8 UNK         0.0235 
     51 CB         26.7032   -1.4161  -10.8067 C.3       8 UNK        -0.2000 
     52 C          28.9360   -0.3098  -11.2336 C.2       8 UNK         0.4941 
     53 O          29.3495   -0.1949  -12.3881 O.2       8 UNK        -0.5273 
     54 N          29.7138   -0.6273  -10.1904 N.am      9 UNK        -0.4262 
     55 CA         31.1534   -0.8818  -10.2830 C.3       9 UNK         0.0264 
     56 CB         31.5907   -1.6955   -9.0561 C.3       9 UNK        -0.1955 
     57 C          32.0095    0.3914  -10.3947 C.2       9 UNK         0.5031 
     58 O          33.1696    0.2849  -10.7951 O.2       9 UNK        -0.5390 
     59 N          31.4512    1.5469  -10.0013 N.am      10 UNK        -0.4204 
     60 CA         32.1335    2.8278   -9.7709 C.3       10 UNK         0.0237 
     61 CB         32.7144    3.4099  -11.0776 C.3       10 UNK        -0.1985 
     62 C          33.1671    2.7060   -8.6324 C.2       10 UNK         0.4970 
     63 O          34.3162    3.1271   -8.7787 O.2       10 UNK        -0.4914 
     64 N          32.7272    2.0895   -7.5290 N.am      11 UNK        -0.4285 
     65 CA         33.5033    1.8320   -6.3117 C.3       11 UNK         0.1007 
     66 C          33.8718    3.1463   -5.5688 C.2       11 UNK         0.5703 
     67 N          35.0994    3.2666   -5.0817 N.am      11 UNK        -0.7361 
     68 O          33.0447    4.0420   -5.4064 O.2       11 UNK        -0.4986 
     69 C69        32.7318    0.8407   -5.4021 C.3       12 UNK        -0.0947 
     70 S70        33.7673    0.0335   -4.1398 S.3       12 UNK        -0.2240 
     71 C71        33.8245   -1.6862   -4.7383 C.3       12 UNK         0.0194 
     72 H72        27.5606   -6.5511   -3.2038 H         1 UNK         0.0906 
     73 H73        27.3889   -7.5149   -1.7348 H         1 UNK         0.0906 
     74 H74        25.9677   -7.1175   -2.7039 H         1 UNK         0.0906 
     75 H75        27.9054   -4.3967   -2.7254 H         1 UNK         0.3140 
     76 H76        27.1503   -3.1953   -0.1848 H         1 UNK         0.1085 
     77 H77        28.6346   -2.1342   -2.6548 H         1 UNK         0.0836 
     78 H78        28.1118   -1.0829   -1.3797 H         1 UNK         0.0836 
     79 H79        31.5686   -4.1363   -0.8647 H         1 UNK         0.0731 
     80 H80        30.0251   -4.7465   -1.3798 H         1 UNK         0.0731 
     81 H81        32.7593   -2.3503   -2.3126 H         1 UNK         0.1312 
     82 H82        32.0674   -2.7783   -6.5186 H         1 UNK         0.1406 
     83 H83        29.5144   -4.7643   -3.7143 H         1 UNK         0.1631 
     84 H84        30.4635   -5.1924   -6.8454 H         1 UNK         0.0717 
     85 H85        29.8388   -3.6223   -7.2378 H         1 UNK         0.0717 
     86 H86        27.8608   -3.1161   -4.5854 H         1 UNK         0.0934 
     87 H87        26.4090   -3.9870   -4.9332 H         1 UNK         0.0934 
     88 H88        26.6580   -2.9642   -7.3881 H         1 UNK         0.0739 
     89 H89        25.2697   -1.9844   -5.0836 H         1 UNK         0.3093 
     90 H90        23.4063    0.5343   -6.8670 H         1 UNK         0.0818 
     91 H91        21.5406   -0.7893   -5.9362 H         1 UNK         0.0819 
     92 H92        22.2902   -1.6822   -7.2491 H         1 UNK         0.0819 
     93 H93        22.6195   -2.1370   -5.5815 H         1 UNK         0.0819 
     94 H94        23.1807   -0.1100   -4.1627 H         1 UNK         0.3041 
     95 H95        25.7134    1.9659   -2.8024 H         1 UNK         0.0784 
     96 H96        23.9191    3.5346   -3.4535 H         1 UNK         0.0793 
     97 H97        22.6834    2.3721   -3.0031 H         1 UNK         0.0793 
     98 H98        23.7381    3.0633   -1.7713 H         1 UNK         0.0793 
     99 H99        25.3542    0.2519   -1.4870 H         1 UNK         0.3024 
    100 H100       23.3651   -1.1290    0.0872 H         1 UNK         0.1171 
    101 H101       22.8454   -3.5159   -0.5080 H         1 UNK         0.0786 
    102 H102       22.9214   -3.1005   -2.2192 H         1 UNK         0.0786 
    103 H103       21.6775   -2.4001   -1.1927 H         1 UNK         0.0786 
    104 H104       25.3776   -2.0627    0.1996 H         1 UNK         0.2977 
    105 H105       27.4439   -0.5439   -4.8892 H         1 UNK         0.3127 
    106 H106       30.0462    0.0805   -5.7665 H         1 UNK         0.0770 
    107 H107       28.0466    1.7311   -4.1282 H         1 UNK         0.0814 
    108 H108       29.7407    2.1388   -4.3222 H         1 UNK         0.0814 
    109 H109       29.2941    0.6535   -3.4988 H         1 UNK         0.0814 
    110 H110       26.9045    1.6255   -6.5191 H         1 UNK         0.2983 
    111 H111       27.8837    3.6365   -8.2639 H         1 UNK         0.0947 
    112 H112       25.4948    3.7475   -9.0200 H         1 UNK         0.0806 
    113 H113       25.6147    3.6919   -7.2677 H         1 UNK         0.0806 
    114 H114       25.1488    2.2490   -8.1642 H         1 UNK         0.0806 
    115 H115       26.7607    0.2848   -8.9599 H         1 UNK         0.3000 
    116 H116       27.0224    0.4595  -11.7927 H         1 UNK         0.0850 
    117 H117       26.8574   -2.0393  -11.6886 H         1 UNK         0.0810 
    118 H118       25.6289   -1.2638  -10.7014 H         1 UNK         0.0810 
    119 H119       27.0453   -1.9834   -9.9402 H         1 UNK         0.0810 
    120 H120       29.2816   -0.7622   -9.2767 H         1 UNK         0.3040 
    121 H121       31.3441   -1.4825  -11.1750 H         1 UNK         0.0766 
    122 H122       32.6610   -1.9052   -9.0806 H         1 UNK         0.0812 
    123 H123       31.3811   -1.1592   -8.1297 H         1 UNK         0.0812 
    124 H124       31.0741   -2.6539   -9.0179 H         1 UNK         0.0812 
    125 H125       30.5047    1.5009   -9.6431 H         1 UNK         0.3205 
    126 H126       31.3677    3.5196   -9.4162 H         1 UNK         0.0754 
    127 H127       33.1022    4.4161  -10.9146 H         1 UNK         0.0769 
    128 H128       31.9515    3.4777  -11.8532 H         1 UNK         0.0769 
    129 H129       33.5356    2.8071  -11.4661 H         1 UNK         0.0769 
    130 H130       31.7360    1.8643   -7.4840 H         1 UNK         0.2981 
    131 H131       34.4272    1.3474   -6.6336 H         1 UNK         0.0541 
    132 H132       35.7759    2.5272   -5.1906 H         1 UNK         0.3459 
    133 H133       35.3510    4.1079   -4.5872 H         1 UNK         0.3459 
    134 H134       32.2855    0.0566   -6.0142 H         1 UNK         0.0612 
    135 H135       31.9061    1.3428   -4.8982 H         1 UNK         0.0612 
    136 H136       34.0553   -1.6876   -5.8048 H         1 UNK         0.0624 
    137 H137       34.6578   -2.1916   -4.2486 H         1 UNK         0.0624 
@<TRIPOS>BOND
     1    1    2 1    
     2    1   72 1    
     3    1   73 1    
     4    1   74 1    
     5    2    3 2    
     6    2    4 am   BACKBONE|DICT|INTERRES
     7    4    5 1    
     8    4   75 1    
     9    5    6 1    
    10    5   35 1    
    11    5   76 1    
    12    6    7 1    
    13    6   77 1    
    14    6   78 1    
    15    7    8 1    
    16    8    9 1    
    17    8   79 1    
    18    8   80 1    
    19    9   10 ar   
    20    9   14 ar   
    21   10   11 ar   
    22   10   81 1    
    23   11   12 ar   
    24   11   71 1    
    25   12   13 ar   
    26   12   82 1    
    27   13   14 ar   
    28   13   15 1    
    29   14   83 1    
    30   15   16 1    
    31   15   84 1    
    32   15   85 1    
    33   16   17 1    
    34   17   18 1    
    35   17   86 1    
    36   17   87 1    
    37   18   19 1    
    38   18   37 1    
    39   18   88 1    
    40   19   20 am   BACKBONE|DICT|INTERRES
    41   19   89 1    
    42   20   21 2    
    43   20   22 1    
    44   22   23 1    
    45   22   24 1    
    46   22   90 1    
    47   23   91 1    
    48   23   92 1    
    49   23   93 1    
    50   24   25 am   BACKBONE|DICT|INTERRES
    51   24   94 1    
    52   25   26 2    
    53   25   27 1    
    54   27   28 1    
    55   27   29 1    
    56   27   95 1    
    57   28   96 1    
    58   28   97 1    
    59   28   98 1    
    60   29   30 am   BACKBONE|DICT|INTERRES
    61   29   99 1    
    62   30   31 2    
    63   30   32 1    
    64   32   33 1    
    65   32   34 1    
    66   32  100 1    
    67   33  101 1    
    68   33  102 1    
    69   33  103 1    
    70   34   35 am   BACKBONE|DICT|INTERRES
    71   34  104 1    
    72   35   36 2    
    73   37   38 2    
    74   37   39 am   BACKBONE|DICT|INTERRES
    75   39   40 1    
    76   39  105 1    
    77   40   41 1    
    78   40   42 1    
    79   40  106 1    
    80   41  107 1    
    81   41  108 1    
    82   41  109 1    
    83   42   43 2    
    84   42   44 am   BACKBONE|DICT|INTERRES
    85   44   45 1    
    86   44  110 1    
    87   45   46 1    
    88   45   47 1    
    89   45  111 1    
    90   46  112 1    
    91   46  113 1    
    92   46  114 1    
    93   47   48 2    
    94   47   49 am   BACKBONE|DICT|INTERRES
    95   49   50 1    
    96   49  115 1    
    97   50   51 1    
    98   50   52 1    
    99   50  116 1    
   100   51  117 1    
   101   51  118 1    
   102   51  119 1    
   103   52   53 2    
   104   52   54 am   BACKBONE|DICT|INTERRES
   105   54   55 1    
   106   54  120 1    
   107   55   56 1    
   108   55   57 1    
   109   55  121 1    
   110   56  122 1    
   111   56  123 1    
   112   56  124 1    
   113   57   58 2    
   114   57   59 am   BACKBONE|DICT|INTERRES
   115   59   60 1    
   116   59  125 1    
   117   60   61 1    
   118   60   62 1    
   119   60  126 1    
   120   61  127 1    
   121   61  128 1    
   122   61  129 1    
   123   62   63 2    
   124   62   64 am   BACKBONE|DICT|INTERRES
   125   64   65 1    
   126   64  130 1    
   127   65   66 1    
   128   65   69 1    
   129   65  131 1    
   130   66   67 am   BACKBONE|DICT|INTERRES
   131   66   68 2    
   132   67  132 1    
   133   67  133 1    
   134   69   70 1    
   135   69  134 1    
   136   69  135 1    
   137   70   71 1    
   138   71  136 1    
   139   71  137 1    
@<TRIPOS>SUBSTRUCTURE
     1 UNK         1 GROUP             0       ****    0 ROOT    
