@<TRIPOS>MOLECULE
3R137
137   139    1
SMALL
USER_CHARGES


@<TRIPOS>ATOM
      1 CA         28.5318   -4.3287    1.3782 C.3       0 UNK        -0.2020 
      2 C          28.0992   -3.3887    0.2639 C.2       0 UNK         0.4855 
      3 O          27.5886   -3.8509   -0.7564 O.2       0 UNK        -0.5197 
      4 N          28.2979   -2.0765    0.4556 N.am      1 UNK        -0.4892 
      5 CA         27.9934   -0.9576   -0.4551 C.3       1 UNK         0.0835 
      6 C6         28.7429   -1.0206   -1.8142 C.3       12 UNK        -0.0855 
      7 S7         30.5435   -0.7742   -1.6318 S.3       12 UNK        -0.2931 
      8 C8         31.2093   -2.4680   -1.7146 C.3       12 UNK         0.0378 
      9 C9         31.0591   -3.0869   -3.0968 C.ar      12 UNK        -0.0802 
     10 C10        31.9518   -2.7556   -4.1213 C.ar      12 UNK        -0.0944 
     11 C11        31.8257   -3.3382   -5.3866 C.ar      12 UNK        -0.0787 
     12 C12        30.7990   -4.2572   -5.6224 C.ar      12 UNK        -0.0862 
     13 C13        29.9002   -4.5944   -4.6061 C.ar      12 UNK        -0.0733 
     14 C14        30.0405   -4.0114   -3.3446 C.ar      12 UNK        -0.0832 
     15 C15        28.7898   -5.6034   -4.8617 C.3       12 UNK         0.0240 
     16 S16        27.6244   -5.0446   -6.1427 S.3       12 UNK        -0.2522 
     17 C17        26.7860   -3.6465   -5.3235 C.3       12 UNK        -0.0967 
     18 CA         26.2163   -2.6456   -6.3689 C.3       5 UNK         0.0660 
     19 N          24.7975   -2.3625   -6.1404 N.am      5 UNK        -0.4015 
     20 C          23.8745   -2.2455   -7.1053 C.2       4 UNK         0.4946 
     21 O          24.1093   -2.4011   -8.3042 O.2       4 UNK        -0.5353 
     22 CA         22.4369   -1.9008   -6.6728 C.3       4 UNK         0.0277 
     23 CB         21.5958   -3.1813   -6.5434 C.3       4 UNK        -0.1981 
     24 N          22.3583   -1.1448   -5.4206 N.am      4 UNK        -0.4209 
     25 C          22.7908    0.1137   -5.2649 C.2       3 UNK         0.4942 
     26 O          23.2920    0.7843   -6.1671 O.2       3 UNK        -0.5208 
     27 CA         22.6862    0.7097   -3.8499 C.3       3 UNK         0.0250 
     28 CB         21.2913    1.3170   -3.6291 C.3       3 UNK        -0.1990 
     29 N          22.9962   -0.2159   -2.7496 N.am      3 UNK        -0.4232 
     30 C          24.0959   -0.9761   -2.6452 C.2       2 UNK         0.4993 
     31 O          24.9225   -1.1247   -3.5483 O.2       2 UNK        -0.5286 
     32 CA         24.3005   -1.7268   -1.3208 C.3       2 UNK         0.0209 
     33 CB         23.7641   -3.1624   -1.4342 C.3       2 UNK        -0.1931 
     34 N          25.7192   -1.7760   -0.9605 N.am      2 UNK        -0.4546 
     35 C          26.4819   -0.7167   -0.6626 C.2       1 UNK         0.5154 
     36 O          26.0349    0.4250   -0.5392 O.2       1 UNK        -0.5181 
     37 C          27.0165   -1.3309   -6.4270 C.2       5 UNK         0.5014 
     38 O          27.8688   -1.1795   -7.3022 O.2       5 UNK        -0.5248 
     39 N          26.6850   -0.3738   -5.5443 N.am      6 UNK        -0.4434 
     40 CA         27.2541    0.9789   -5.4866 C.3       6 UNK         0.0363 
     41 CB         26.6346    1.7429   -4.3065 C.3       6 UNK        -0.1936 
     42 C          27.0782    1.7868   -6.7860 C.2       6 UNK         0.5081 
     43 O          27.8937    2.6650   -7.0656 O.2       6 UNK        -0.5248 
     44 N          26.0566    1.4439   -7.5845 N.am      7 UNK        -0.4718 
     45 CA         25.8097    1.9474   -8.9394 C.3       7 UNK         0.0273 
     46 CB         24.5166    1.3120   -9.4752 C.3       7 UNK        -0.1935 
     47 C          26.9695    1.7222   -9.9329 C.2       7 UNK         0.5018 
     48 O          27.0409    2.4393  -10.9315 O.2       7 UNK        -0.5186 
     49 N          27.8691    0.7681   -9.6436 N.am      8 UNK        -0.4240 
     50 CA         29.1153    0.5467  -10.3841 C.3       8 UNK         0.0235 
     51 CB         29.6281   -0.8725  -10.0919 C.3       8 UNK        -0.2000 
     52 C          30.2083    1.5986  -10.0926 C.2       8 UNK         0.4941 
     53 O          31.2322    1.5861  -10.7777 O.2       8 UNK        -0.5273 
     54 N          29.9815    2.4882   -9.1115 N.am      9 UNK        -0.4262 
     55 CA         30.8581    3.5778   -8.6733 C.3       9 UNK         0.0264 
     56 CB         31.0474    4.6282   -9.7933 C.3       9 UNK        -0.1955 
     57 C          32.1644    3.0410   -8.0607 C.2       9 UNK         0.5031 
     58 O          32.1023    2.1848   -7.1762 O.2       9 UNK        -0.5390 
     59 N          33.3201    3.5485   -8.5088 N.am      10 UNK        -0.4204 
     60 CA         34.6571    3.1909   -8.0235 C.3       10 UNK         0.0237 
     61 CB         35.6257    4.3458   -8.3438 C.3       10 UNK        -0.1985 
     62 C          35.1477    1.8328   -8.5691 C.2       10 UNK         0.4970 
     63 O          36.2313    1.7571   -9.1523 O.2       10 UNK        -0.4914 
     64 N          34.3371    0.7870   -8.3818 N.am      11 UNK        -0.4285 
     65 CA         34.6554   -0.6058   -8.7156 C.3       11 UNK         0.1007 
     66 C          35.7362   -1.2312   -7.7883 C.2       11 UNK         0.5703 
     67 N          36.3625   -2.3186   -8.2184 N.am      11 UNK        -0.7361 
     68 O          35.9979   -0.7630   -6.6811 O.2       11 UNK        -0.4986 
     69 C69        33.3727   -1.4746   -8.8115 C.3       12 UNK        -0.0947 
     70 S70        32.3082   -1.4414   -7.3272 S.3       12 UNK        -0.2240 
     71 C71        32.7988   -2.9829   -6.4991 C.3       12 UNK         0.0194 
     72 H72        29.2688   -5.0383    1.0032 H         1 UNK         0.0906 
     73 H73        27.6746   -4.8911    1.7473 H         1 UNK         0.0906 
     74 H74        28.9738   -3.7929    2.2180 H         1 UNK         0.0906 
     75 H75        28.7011   -1.7849    1.3357 H         1 UNK         0.3140 
     76 H76        28.3513   -0.0665    0.0643 H         1 UNK         0.1085 
     77 H77        28.3956   -0.2264   -2.4768 H         1 UNK         0.0836 
     78 H78        28.5282   -1.9483   -2.3428 H         1 UNK         0.0836 
     79 H79        32.2670   -2.4383   -1.4490 H         1 UNK         0.0731 
     80 H80        30.7297   -3.0886   -0.9576 H         1 UNK         0.0731 
     81 H81        32.7421   -2.0408   -3.9357 H         1 UNK         0.1312 
     82 H82        30.6929   -4.7077   -6.6000 H         1 UNK         0.1406 
     83 H83        29.3539   -4.2778   -2.5533 H         1 UNK         0.1631 
     84 H84        28.2352   -5.8205   -3.9472 H         1 UNK         0.0717 
     85 H85        29.2367   -6.5459   -5.1809 H         1 UNK         0.0717 
     86 H86        25.9898   -4.0675   -4.7071 H         1 UNK         0.0934 
     87 H87        27.4666   -3.1639   -4.6188 H         1 UNK         0.0934 
     88 H88        26.3093   -3.0901   -7.3624 H         1 UNK         0.0739 
     89 H89        24.5389   -2.1418   -5.1843 H         1 UNK         0.3093 
     90 H90        22.0009   -1.2842   -7.4621 H         1 UNK         0.0818 
     91 H91        21.6116   -3.7536   -7.4721 H         1 UNK         0.0819 
     92 H92        21.9699   -3.8334   -5.7530 H         1 UNK         0.0819 
     93 H93        20.5526   -2.9516   -6.3255 H         1 UNK         0.0819 
     94 H94        21.9649   -1.6186   -4.6204 H         1 UNK         0.3041 
     95 H95        23.4124    1.5212   -3.7905 H         1 UNK         0.0784 
     96 H96        21.0418    2.0225   -4.4232 H         1 UNK         0.0793 
     97 H97        20.5138    0.5521   -3.6168 H         1 UNK         0.0793 
     98 H98        21.2398    1.8641   -2.6875 H         1 UNK         0.0793 
     99 H99        22.3627   -0.1869   -1.9633 H         1 UNK         0.3024 
    100 H100       23.7662   -1.2031   -0.5251 H         1 UNK         0.1171 
    101 H101       22.7011   -3.1674   -1.6788 H         1 UNK         0.0786 
    102 H102       23.8825   -3.7045   -0.4957 H         1 UNK         0.0786 
    103 H103       24.2822   -3.7251   -2.2123 H         1 UNK         0.0786 
    104 H104       26.1938   -2.6725   -1.0417 H         1 UNK         0.2977 
    105 H105       25.9889   -0.5966   -4.8323 H         1 UNK         0.3127 
    106 H106       28.3259    0.8712   -5.3077 H         1 UNK         0.0770 
    107 H107       26.7245    1.1913   -3.3714 H         1 UNK         0.0814 
    108 H108       27.1278    2.7055   -4.1656 H         1 UNK         0.0814 
    109 H109       25.5771    1.9427   -4.4754 H         1 UNK         0.0814 
    110 H110       25.3978    0.7605   -7.2336 H         1 UNK         0.2983 
    111 H111       25.6596    3.0262   -8.8628 H         1 UNK         0.0947 
    112 H112       24.5963    0.2255   -9.5335 H         1 UNK         0.0806 
    113 H113       24.2848    1.6776  -10.4766 H         1 UNK         0.0806 
    114 H114       23.6636    1.5513   -8.8397 H         1 UNK         0.0806 
    115 H115       27.7418    0.2100   -8.8039 H         1 UNK         0.3000 
    116 H116       28.8920    0.6084  -11.4513 H         1 UNK         0.0850 
    117 H117       30.5105   -1.1016  -10.6902 H         1 UNK         0.0810 
    118 H118       28.8746   -1.6251  -10.3242 H         1 UNK         0.0810 
    119 H119       29.9049   -0.9892   -9.0440 H         1 UNK         0.0810 
    120 H120       29.1364    2.3865   -8.5563 H         1 UNK         0.3040 
    121 H121       30.3300    4.0697   -7.8551 H         1 UNK         0.0766 
    122 H122       31.5785    5.5076   -9.4269 H         1 UNK         0.0812 
    123 H123       30.0832    4.9762  -10.1645 H         1 UNK         0.0812 
    124 H124       31.6010    4.2330  -10.6457 H         1 UNK         0.0812 
    125 H125       33.2812    4.2149   -9.2663 H         1 UNK         0.3205 
    126 H126       34.6135    3.0930   -6.9365 H         1 UNK         0.0754 
    127 H127       36.6218    4.1431   -7.9479 H         1 UNK         0.0769 
    128 H128       35.2888    5.2819   -7.8978 H         1 UNK         0.0769 
    129 H129       35.7268    4.5025   -9.4186 H         1 UNK         0.0769 
    130 H130       33.4690    0.9400   -7.8772 H         1 UNK         0.2981 
    131 H131       35.0955   -0.5872   -9.7147 H         1 UNK         0.0541 
    132 H132       37.0614   -2.7446   -7.6303 H         1 UNK         0.3459 
    133 H133       36.1588   -2.7171   -9.1217 H         1 UNK         0.3459 
    134 H134       33.6171   -2.5058   -9.0708 H         1 UNK         0.0612 
    135 H135       32.7665   -1.1088   -9.6412 H         1 UNK         0.0612 
    136 H136       32.8433   -3.7931   -7.2284 H         1 UNK         0.0624 
    137 H137       33.8055   -2.8735   -6.0937 H         1 UNK         0.0624 
@<TRIPOS>BOND
     1    1    2 1    
     2    1   72 1    
     3    1   73 1    
     4    1   74 1    
     5    2    3 2    
     6    2    4 am   BACKBONE|DICT|INTERRES
     7    4    5 1    
     8    4   75 1    
     9    5    6 1    
    10    5   35 1    
    11    5   76 1    
    12    6    7 1    
    13    6   77 1    
    14    6   78 1    
    15    7    8 1    
    16    8    9 1    
    17    8   79 1    
    18    8   80 1    
    19    9   10 ar   
    20    9   14 ar   
    21   10   11 ar   
    22   10   81 1    
    23   11   12 ar   
    24   11   71 1    
    25   12   13 ar   
    26   12   82 1    
    27   13   14 ar   
    28   13   15 1    
    29   14   83 1    
    30   15   16 1    
    31   15   84 1    
    32   15   85 1    
    33   16   17 1    
    34   17   18 1    
    35   17   86 1    
    36   17   87 1    
    37   18   19 1    
    38   18   37 1    
    39   18   88 1    
    40   19   20 am   BACKBONE|DICT|INTERRES
    41   19   89 1    
    42   20   21 2    
    43   20   22 1    
    44   22   23 1    
    45   22   24 1    
    46   22   90 1    
    47   23   91 1    
    48   23   92 1    
    49   23   93 1    
    50   24   25 am   BACKBONE|DICT|INTERRES
    51   24   94 1    
    52   25   26 2    
    53   25   27 1    
    54   27   28 1    
    55   27   29 1    
    56   27   95 1    
    57   28   96 1    
    58   28   97 1    
    59   28   98 1    
    60   29   30 am   BACKBONE|DICT|INTERRES
    61   29   99 1    
    62   30   31 2    
    63   30   32 1    
    64   32   33 1    
    65   32   34 1    
    66   32  100 1    
    67   33  101 1    
    68   33  102 1    
    69   33  103 1    
    70   34   35 am   BACKBONE|DICT|INTERRES
    71   34  104 1    
    72   35   36 2    
    73   37   38 2    
    74   37   39 am   BACKBONE|DICT|INTERRES
    75   39   40 1    
    76   39  105 1    
    77   40   41 1    
    78   40   42 1    
    79   40  106 1    
    80   41  107 1    
    81   41  108 1    
    82   41  109 1    
    83   42   43 2    
    84   42   44 am   BACKBONE|DICT|INTERRES
    85   44   45 1    
    86   44  110 1    
    87   45   46 1    
    88   45   47 1    
    89   45  111 1    
    90   46  112 1    
    91   46  113 1    
    92   46  114 1    
    93   47   48 2    
    94   47   49 am   BACKBONE|DICT|INTERRES
    95   49   50 1    
    96   49  115 1    
    97   50   51 1    
    98   50   52 1    
    99   50  116 1    
   100   51  117 1    
   101   51  118 1    
   102   51  119 1    
   103   52   53 2    
   104   52   54 am   BACKBONE|DICT|INTERRES
   105   54   55 1    
   106   54  120 1    
   107   55   56 1    
   108   55   57 1    
   109   55  121 1    
   110   56  122 1    
   111   56  123 1    
   112   56  124 1    
   113   57   58 2    
   114   57   59 am   BACKBONE|DICT|INTERRES
   115   59   60 1    
   116   59  125 1    
   117   60   61 1    
   118   60   62 1    
   119   60  126 1    
   120   61  127 1    
   121   61  128 1    
   122   61  129 1    
   123   62   63 2    
   124   62   64 am   BACKBONE|DICT|INTERRES
   125   64   65 1    
   126   64  130 1    
   127   65   66 1    
   128   65   69 1    
   129   65  131 1    
   130   66   67 am   BACKBONE|DICT|INTERRES
   131   66   68 2    
   132   67  132 1    
   133   67  133 1    
   134   69   70 1    
   135   69  134 1    
   136   69  135 1    
   137   70   71 1    
   138   71  136 1    
   139   71  137 1    
@<TRIPOS>SUBSTRUCTURE
     1 UNK         1 GROUP             0       ****    0 ROOT    
