@<TRIPOS>MOLECULE
3R137
137   139    1
SMALL
USER_CHARGES


@<TRIPOS>ATOM
      1 CA         23.1187    0.7153   -6.5251 C.3       0 UNK        -0.2020 
      2 C          23.0279   -0.7406   -6.0926 C.2       0 UNK         0.4855 
      3 O          22.0337   -1.4079   -6.3803 O.2       0 UNK        -0.5197 
      4 N          24.0668   -1.2336   -5.4133 N.am      1 UNK        -0.4892 
      5 CA         24.1583   -2.5802   -4.8501 C.3       1 UNK         0.0835 
      6 C6         25.6208   -3.0902   -4.9367 C.3       12 UNK        -0.0855 
      7 S7         25.7325   -4.9089   -5.0296 S.3       12 UNK        -0.2931 
      8 C8         27.1348   -5.1260   -6.1785 C.3       12 UNK         0.0378 
      9 C9         28.4175   -4.4256   -5.7319 C.ar      12 UNK        -0.0802 
     10 C10        29.2253   -3.7949   -6.6831 C.ar      12 UNK        -0.0944 
     11 C11        30.4183   -3.1631   -6.3162 C.ar      12 UNK        -0.0787 
     12 C12        30.7894   -3.1543   -4.9645 C.ar      12 UNK        -0.0862 
     13 C13        29.9881   -3.7722   -3.9987 C.ar      12 UNK        -0.0733 
     14 C14        28.8146   -4.4192   -4.3904 C.ar      12 UNK        -0.0832 
     15 C15        30.3831   -3.7409   -2.5280 C.3       12 UNK         0.0240 
     16 S16        29.4308   -2.4971   -1.5933 S.3       12 UNK        -0.2522 
     17 C17        29.9781   -0.9549   -2.3957 C.3       12 UNK        -0.0967 
     18 CA         28.9087   -0.4142   -3.3805 C.3       5 UNK         0.0660 
     19 N          27.7542    0.1411   -2.6652 N.am      5 UNK        -0.4015 
     20 C          26.5568    0.4250   -3.1901 C.2       4 UNK         0.4946 
     21 O          26.2482    0.1865   -4.3623 O.2       4 UNK        -0.5353 
     22 CA         25.5443    1.0811   -2.2405 C.3       4 UNK         0.0277 
     23 CB         24.3472    1.7012   -2.9852 C.3       4 UNK        -0.1981 
     24 N          25.0605    0.1099   -1.2590 N.am      4 UNK        -0.4209 
     25 C          25.6708   -0.1633   -0.0960 C.2       3 UNK         0.4942 
     26 O          26.7287    0.3671    0.2477 O.2       3 UNK        -0.5208 
     27 CA         25.0017   -1.1749    0.8544 C.3       3 UNK         0.0250 
     28 CB         24.2040   -0.4368    1.9419 C.3       3 UNK        -0.1990 
     29 N          24.1150   -2.1162    0.1674 N.am      3 UNK        -0.4232 
     30 C          24.5377   -3.1837   -0.5216 C.2       2 UNK         0.4993 
     31 O          25.7162   -3.5348   -0.5835 O.2       2 UNK        -0.5286 
     32 CA         23.4850   -3.9801   -1.3169 C.3       2 UNK         0.0209 
     33 CB         22.0205   -3.7128   -0.8964 C.3       2 UNK        -0.1931 
     34 N          23.6760   -3.7610   -2.7556 N.am      2 UNK        -0.4546 
     35 C          23.6428   -2.5824   -3.3940 C.2       1 UNK         0.5154 
     36 O          23.2749   -1.5329   -2.8568 O.2       1 UNK        -0.5181 
     37 C          29.4993    0.6041   -4.3812 C.2       5 UNK         0.5014 
     38 O          30.6214    1.0758   -4.1981 O.2       5 UNK        -0.5248 
     39 N          28.7203    0.9325   -5.4157 N.am      6 UNK        -0.4434 
     40 CA         29.0784    1.8365   -6.5078 C.3       6 UNK         0.0363 
     41 CB         28.7468    3.2866   -6.1087 C.3       6 UNK        -0.1936 
     42 C          28.3946    1.4377   -7.8271 C.2       6 UNK         0.5081 
     43 O          28.4688    2.1996   -8.7902 O.2       6 UNK        -0.5248 
     44 N          27.7488    0.2605   -7.8759 N.am      7 UNK        -0.4718 
     45 CA         26.9462   -0.2142   -9.0134 C.3       7 UNK         0.0273 
     46 CB         26.2426   -1.5247   -8.6270 C.3       7 UNK        -0.1935 
     47 C          27.7303   -0.3941  -10.3266 C.2       7 UNK         0.5018 
     48 O          27.1539   -0.2269  -11.4016 O.2       7 UNK        -0.5186 
     49 N          29.0266   -0.7088  -10.2124 N.am      8 UNK        -0.4240 
     50 CA         29.9625   -0.8332  -11.3332 C.3       8 UNK         0.0235 
     51 CB         30.9085   -2.0167  -11.0596 C.3       8 UNK        -0.2000 
     52 C          30.7709    0.4556  -11.5770 C.2       8 UNK         0.4941 
     53 O          31.7004    0.4240  -12.3849 O.2       8 UNK        -0.5273 
     54 N          30.4667    1.5437  -10.8492 N.am      9 UNK        -0.4262 
     55 CA         31.1522    2.8454  -10.7988 C.3       9 UNK         0.0264 
     56 CB         31.1499    3.5509  -12.1689 C.3       9 UNK        -0.1955 
     57 C          32.5696    2.7892  -10.1996 C.2       9 UNK         0.5031 
     58 O          32.8845    3.5934   -9.3217 O.2       9 UNK        -0.5390 
     59 N          33.3843    1.8267  -10.6506 N.am      10 UNK        -0.4204 
     60 CA         34.7707    1.5842  -10.2369 C.3       10 UNK         0.0237 
     61 CB         35.3453    0.4282  -11.0718 C.3       10 UNK        -0.1985 
     62 C          34.9538    1.3012   -8.7344 C.2       10 UNK         0.4970 
     63 O          36.0290    1.5800   -8.2020 O.2       10 UNK        -0.4914 
     64 N          33.9115    0.7725   -8.0799 N.am      11 UNK        -0.4285 
     65 CA         33.8567    0.5772   -6.6229 C.3       11 UNK         0.1007 
     66 C          33.7344    1.8986   -5.8056 C.2       11 UNK         0.5703 
     67 N          33.3962    3.0346   -6.4081 N.am      11 UNK        -0.7361 
     68 O          33.9822    1.8962   -4.6023 O.2       11 UNK        -0.4986 
     69 C69        32.7567   -0.4363   -6.2105 C.3       12 UNK        -0.0947 
     70 S70        32.9750   -2.0734   -6.9865 S.3       12 UNK        -0.2240 
     71 C71        31.2580   -2.5198   -7.4235 C.3       12 UNK         0.0194 
     72 H72        24.0787    1.1585   -6.2588 H         1 UNK         0.0906 
     73 H73        22.9980    0.7950   -7.6051 H         1 UNK         0.0906 
     74 H74        22.3314    1.2983   -6.0480 H         1 UNK         0.0906 
     75 H75        24.8263   -0.6130   -5.1338 H         1 UNK         0.3140 
     76 H76        23.5136   -3.2455   -5.4290 H         1 UNK         0.1085 
     77 H77        26.2276   -2.7305   -4.1022 H         1 UNK         0.0836 
     78 H78        26.0982   -2.6883   -5.8311 H         1 UNK         0.0836 
     79 H79        26.8278   -4.7703   -7.1635 H         1 UNK         0.0731 
     80 H80        27.3387   -6.1921   -6.2851 H         1 UNK         0.0731 
     81 H81        28.9314   -3.8088   -7.7240 H         1 UNK         0.1312 
     82 H82        31.7016   -2.6699   -4.6504 H         1 UNK         0.1406 
     83 H83        28.2017   -4.9036   -3.6423 H         1 UNK         0.1631 
     84 H84        31.4501   -3.5410   -2.4170 H         1 UNK         0.0717 
     85 H85        30.2109   -4.7224   -2.0838 H         1 UNK         0.0717 
     86 H86        30.2033   -0.2148   -1.6257 H         1 UNK         0.0934 
     87 H87        30.9267   -1.1465   -2.8998 H         1 UNK         0.0934 
     88 H88        28.5522   -1.2531   -3.9826 H         1 UNK         0.0739 
     89 H89        27.8901    0.3313   -1.6798 H         1 UNK         0.3093 
     90 H90        26.0580    1.8962   -1.7259 H         1 UNK         0.0818 
     91 H91        24.6829    2.4215   -3.7324 H         1 UNK         0.0819 
     92 H92        23.7515    0.9505   -3.5025 H         1 UNK         0.0819 
     93 H93        23.6877    2.2311   -2.2982 H         1 UNK         0.0819 
     94 H94        24.2502   -0.4358   -1.5394 H         1 UNK         0.3041 
     95 H95        25.7989   -1.7391    1.3439 H         1 UNK         0.0784 
     96 H96        24.8438    0.2532    2.4942 H         1 UNK         0.0793 
     97 H97        23.3854    0.1466    1.5182 H         1 UNK         0.0793 
     98 H98        23.7814   -1.1335    2.6661 H         1 UNK         0.0793 
     99 H99        23.1314   -1.8880    0.1437 H         1 UNK         0.3024 
    100 H100       23.6955   -5.0340   -1.1264 H         1 UNK         0.1171 
    101 H101       21.3381   -4.3707   -1.4345 H         1 UNK         0.0786 
    102 H102       21.8766   -3.9081    0.1672 H         1 UNK         0.0786 
    103 H103       21.7033   -2.6881   -1.0909 H         1 UNK         0.0786 
    104 H104       24.0503   -4.5499   -3.2687 H         1 UNK         0.2977 
    105 H105       27.7575    0.6015   -5.3877 H         1 UNK         0.3127 
    106 H106       30.1528    1.7689   -6.6904 H         1 UNK         0.0770 
    107 H107       27.6800    3.4171   -5.9237 H         1 UNK         0.0814 
    108 H108       29.0329    3.9877   -6.8939 H         1 UNK         0.0814 
    109 H109       29.2828    3.5815   -5.2065 H         1 UNK         0.0814 
    110 H110       27.7656   -0.3337   -7.0609 H         1 UNK         0.2983 
    111 H111       26.1784    0.5386   -9.2059 H         1 UNK         0.0947 
    112 H112       25.6462   -1.9090   -9.4559 H         1 UNK         0.0806 
    113 H113       25.5621   -1.3738   -7.7909 H         1 UNK         0.0806 
    114 H114       26.9543   -2.3026   -8.3498 H         1 UNK         0.0806 
    115 H115       29.4041   -0.8183   -9.2838 H         1 UNK         0.3000 
    116 H116       29.4123   -1.0470  -12.2521 H         1 UNK         0.0850 
    117 H117       31.5174   -2.2384  -11.9371 H         1 UNK         0.0810 
    118 H118       30.3556   -2.9244  -10.8166 H         1 UNK         0.0810 
    119 H119       31.5950   -1.8056  -10.2395 H         1 UNK         0.0810 
    120 H120       29.6743    1.4824  -10.2166 H         1 UNK         0.3040 
    121 H121       30.5563    3.4590  -10.1210 H         1 UNK         0.0766 
    122 H122       30.1374    3.6512  -12.5597 H         1 UNK         0.0812 
    123 H123       31.7437    3.0160  -12.9105 H         1 UNK         0.0812 
    124 H124       31.5664    4.5558  -12.0873 H         1 UNK         0.0812 
    125 H125       33.0041    1.2201  -11.3762 H         1 UNK         0.3205 
    126 H126       35.3383    2.4886  -10.4648 H         1 UNK         0.0754 
    127 H127       36.3869    0.2354  -10.8107 H         1 UNK         0.0769 
    128 H128       35.3171    0.6562  -12.1376 H         1 UNK         0.0769 
    129 H129       34.7910   -0.4978  -10.9123 H         1 UNK         0.0769 
    130 H130       33.0713    0.5630   -8.5944 H         1 UNK         0.2981 
    131 H131       34.8132    0.1417   -6.3268 H         1 UNK         0.0541 
    132 H132       33.2293    3.0777   -7.4074 H         1 UNK         0.3459 
    133 H133       33.3338    3.8756   -5.8577 H         1 UNK         0.3459 
    134 H134       31.7725   -0.0414   -6.4627 H         1 UNK         0.0612 
    135 H135       32.7594   -0.5810   -5.1288 H         1 UNK         0.0612 
    136 H136       31.3175   -3.2242   -8.2543 H         1 UNK         0.0624 
    137 H137       30.7377   -1.6406   -7.8030 H         1 UNK         0.0624 
@<TRIPOS>BOND
     1    1    2 1    
     2    1   72 1    
     3    1   73 1    
     4    1   74 1    
     5    2    3 2    
     6    2    4 am   BACKBONE|DICT|INTERRES
     7    4    5 1    
     8    4   75 1    
     9    5    6 1    
    10    5   35 1    
    11    5   76 1    
    12    6    7 1    
    13    6   77 1    
    14    6   78 1    
    15    7    8 1    
    16    8    9 1    
    17    8   79 1    
    18    8   80 1    
    19    9   10 ar   
    20    9   14 ar   
    21   10   11 ar   
    22   10   81 1    
    23   11   12 ar   
    24   11   71 1    
    25   12   13 ar   
    26   12   82 1    
    27   13   14 ar   
    28   13   15 1    
    29   14   83 1    
    30   15   16 1    
    31   15   84 1    
    32   15   85 1    
    33   16   17 1    
    34   17   18 1    
    35   17   86 1    
    36   17   87 1    
    37   18   19 1    
    38   18   37 1    
    39   18   88 1    
    40   19   20 am   BACKBONE|DICT|INTERRES
    41   19   89 1    
    42   20   21 2    
    43   20   22 1    
    44   22   23 1    
    45   22   24 1    
    46   22   90 1    
    47   23   91 1    
    48   23   92 1    
    49   23   93 1    
    50   24   25 am   BACKBONE|DICT|INTERRES
    51   24   94 1    
    52   25   26 2    
    53   25   27 1    
    54   27   28 1    
    55   27   29 1    
    56   27   95 1    
    57   28   96 1    
    58   28   97 1    
    59   28   98 1    
    60   29   30 am   BACKBONE|DICT|INTERRES
    61   29   99 1    
    62   30   31 2    
    63   30   32 1    
    64   32   33 1    
    65   32   34 1    
    66   32  100 1    
    67   33  101 1    
    68   33  102 1    
    69   33  103 1    
    70   34   35 am   BACKBONE|DICT|INTERRES
    71   34  104 1    
    72   35   36 2    
    73   37   38 2    
    74   37   39 am   BACKBONE|DICT|INTERRES
    75   39   40 1    
    76   39  105 1    
    77   40   41 1    
    78   40   42 1    
    79   40  106 1    
    80   41  107 1    
    81   41  108 1    
    82   41  109 1    
    83   42   43 2    
    84   42   44 am   BACKBONE|DICT|INTERRES
    85   44   45 1    
    86   44  110 1    
    87   45   46 1    
    88   45   47 1    
    89   45  111 1    
    90   46  112 1    
    91   46  113 1    
    92   46  114 1    
    93   47   48 2    
    94   47   49 am   BACKBONE|DICT|INTERRES
    95   49   50 1    
    96   49  115 1    
    97   50   51 1    
    98   50   52 1    
    99   50  116 1    
   100   51  117 1    
   101   51  118 1    
   102   51  119 1    
   103   52   53 2    
   104   52   54 am   BACKBONE|DICT|INTERRES
   105   54   55 1    
   106   54  120 1    
   107   55   56 1    
   108   55   57 1    
   109   55  121 1    
   110   56  122 1    
   111   56  123 1    
   112   56  124 1    
   113   57   58 2    
   114   57   59 am   BACKBONE|DICT|INTERRES
   115   59   60 1    
   116   59  125 1    
   117   60   61 1    
   118   60   62 1    
   119   60  126 1    
   120   61  127 1    
   121   61  128 1    
   122   61  129 1    
   123   62   63 2    
   124   62   64 am   BACKBONE|DICT|INTERRES
   125   64   65 1    
   126   64  130 1    
   127   65   66 1    
   128   65   69 1    
   129   65  131 1    
   130   66   67 am   BACKBONE|DICT|INTERRES
   131   66   68 2    
   132   67  132 1    
   133   67  133 1    
   134   69   70 1    
   135   69  134 1    
   136   69  135 1    
   137   70   71 1    
   138   71  136 1    
   139   71  137 1    
@<TRIPOS>SUBSTRUCTURE
     1 UNK         1 GROUP             0       ****    0 ROOT    
