@<TRIPOS>MOLECULE
3R137
137   139    1
SMALL
USER_CHARGES


@<TRIPOS>ATOM
      1 CA         25.5808   -7.4878   -5.1053 C.3       0 UNK        -0.2020 
      2 C          26.0539   -7.1654   -3.6958 C.2       0 UNK         0.4855 
      3 O          25.5277   -7.7218   -2.7318 O.2       0 UNK        -0.5197 
      4 N          27.0444   -6.2716   -3.5689 N.am      1 UNK        -0.4892 
      5 CA         27.6008   -5.8122   -2.2874 C.3       1 UNK         0.0835 
      6 C6         28.9646   -5.1024   -2.4978 C.3       12 UNK        -0.0855 
      7 S7         30.1185   -5.3706   -1.1108 S.3       12 UNK        -0.2931 
      8 C8         30.1635   -3.7272   -0.3246 C.3       12 UNK         0.0378 
      9 C9         30.8078   -2.6704   -1.2140 C.ar      12 UNK        -0.0802 
     10 C10        32.1488   -2.7854   -1.5930 C.ar      12 UNK        -0.0944 
     11 C11        32.7505   -1.8088   -2.3932 C.ar      12 UNK        -0.0787 
     12 C12        31.9958   -0.7091   -2.8153 C.ar      12 UNK        -0.0862 
     13 C13        30.6528   -0.5810   -2.4473 C.ar      12 UNK        -0.0733 
     14 C14        30.0687   -1.5625   -1.6380 C.ar      12 UNK        -0.0832 
     15 C15        29.8552    0.6376   -2.9039 C.3       12 UNK         0.0240 
     16 S16        28.1837    0.2213   -3.4977 S.3       12 UNK        -0.2522 
     17 C17        28.5572   -0.7992   -4.9715 C.3       12 UNK        -0.0967 
     18 CA         27.7241   -0.4347   -6.2286 C.3       5 UNK         0.0660 
     19 N          26.2884   -0.6287   -6.0027 N.am      5 UNK        -0.4015 
     20 C          25.3004   -0.3599   -6.8712 C.2       4 UNK         0.4946 
     21 O          25.4957   -0.0337   -8.0417 O.2       4 UNK        -0.5353 
     22 CA         23.8492   -0.3936   -6.3464 C.3       4 UNK         0.0277 
     23 CB         23.1463   -1.6792   -6.8091 C.3       4 UNK        -0.1981 
     24 N          23.7320   -0.2782   -4.8883 N.am      4 UNK        -0.4209 
     25 C          24.2246    0.7188   -4.1381 C.2       3 UNK         0.4942 
     26 O          24.7037    1.7507   -4.6121 O.2       3 UNK        -0.5208 
     27 CA         24.2626    0.5096   -2.6098 C.3       3 UNK         0.0250 
     28 CB         23.1457    1.3249   -1.9379 C.3       3 UNK        -0.1990 
     29 N          24.2017   -0.8803   -2.1201 N.am      3 UNK        -0.4232 
     30 C          24.9477   -1.9217   -2.5223 C.2       2 UNK         0.4993 
     31 O          25.7153   -1.8902   -3.4872 O.2       2 UNK        -0.5286 
     32 CA         24.7800   -3.2319   -1.7405 C.3       2 UNK         0.0209 
     33 CB         23.3711   -3.8214   -1.9351 C.3       2 UNK        -0.1931 
     34 N          25.7611   -4.1937   -2.2365 N.am      2 UNK        -0.4546 
     35 C          26.6091   -4.9217   -1.5023 C.2       1 UNK         0.5154 
     36 O          26.6226   -4.9206   -0.2703 O.2       1 UNK        -0.5181 
     37 C          28.0806    0.9759   -6.7472 C.2       5 UNK         0.5014 
     38 O          28.9479    1.0928   -7.6131 O.2       5 UNK        -0.5248 
     39 N          27.3919    2.0096   -6.2385 N.am      6 UNK        -0.4434 
     40 CA         27.5755    3.4033   -6.6424 C.3       6 UNK         0.0363 
     41 CB         26.9336    4.3274   -5.5963 C.3       6 UNK        -0.1936 
     42 C          27.0092    3.6912   -8.0416 C.2       6 UNK         0.5081 
     43 O          27.6055    4.4720   -8.7824 O.2       6 UNK        -0.5248 
     44 N          25.8877    3.0442   -8.3893 N.am      7 UNK        -0.4718 
     45 CA         25.2595    3.1295   -9.7107 C.3       7 UNK         0.0273 
     46 CB         23.8090    2.6261   -9.6292 C.3       7 UNK        -0.1935 
     47 C          26.0537    2.3514  -10.7719 C.2       7 UNK         0.5018 
     48 O          26.2020    2.8331  -11.8952 O.2       7 UNK        -0.5186 
     49 N          26.5751    1.1793  -10.3840 N.am      8 UNK        -0.4240 
     50 CA         27.4613    0.3412  -11.1951 C.3       8 UNK         0.0235 
     51 CB         27.5404   -1.0552  -10.5554 C.3       8 UNK        -0.2000 
     52 C          28.8775    0.9236  -11.3668 C.2       8 UNK         0.4941 
     53 O          29.5846    0.5004  -12.2820 O.2       8 UNK        -0.5273 
     54 N          29.2682    1.8507  -10.4779 N.am      9 UNK        -0.4262 
     55 CA         30.6016    2.4453  -10.3241 C.3       9 UNK         0.0264 
     56 CB         30.9823    3.2949  -11.5552 C.3       9 UNK        -0.1955 
     57 C          31.6649    1.3918   -9.9535 C.2       9 UNK         0.5031 
     58 O          32.7794    1.4164  -10.4816 O.2       9 UNK        -0.5390 
     59 N          31.2900    0.4728   -9.0548 N.am      10 UNK        -0.4204 
     60 CA         32.1488   -0.5915   -8.5411 C.3       10 UNK         0.0237 
     61 CB         31.2706   -1.7041   -7.9478 C.3       10 UNK        -0.1985 
     62 C          33.1286   -0.0473   -7.4907 C.2       10 UNK         0.4970 
     63 O          32.7990    0.9039   -6.7781 O.2       10 UNK        -0.4914 
     64 N          34.3064   -0.6789   -7.4151 N.am      11 UNK        -0.4285 
     65 CA         35.4255   -0.3311   -6.5191 C.3       11 UNK         0.1007 
     66 C          36.1256    1.0255   -6.8457 C.2       11 UNK         0.5703 
     67 N          35.8779    1.6443   -7.9947 N.am      11 UNK        -0.7361 
     68 O          36.9389    1.5111   -6.0626 O.2       11 UNK        -0.4986 
     69 C69        35.0738   -0.4702   -5.0086 C.3       12 UNK        -0.0947 
     70 S70        34.4735   -2.1341   -4.5593 S.3       12 UNK        -0.2240 
     71 C71        34.2228   -1.9309   -2.7664 C.3       12 UNK         0.0194 
     72 H72        24.5241   -7.2436   -5.2109 H         1 UNK         0.0906 
     73 H73        25.7066   -8.5509   -5.3091 H         1 UNK         0.0906 
     74 H74        26.1345   -6.9304   -5.8607 H         1 UNK         0.0906 
     75 H75        27.4455   -5.8582   -4.3992 H         1 UNK         0.3140 
     76 H76        27.7648   -6.7071   -1.6820 H         1 UNK         0.1085 
     77 H77        28.8409   -4.0378   -2.7069 H         1 UNK         0.0836 
     78 H78        29.4670   -5.5085   -3.3774 H         1 UNK         0.0836 
     79 H79        29.1494   -3.4396   -0.0421 H         1 UNK         0.0731 
     80 H80        30.7304   -3.7984    0.6047 H         1 UNK         0.0731 
     81 H81        32.7234   -3.6382   -1.2575 H         1 UNK         0.1312 
     82 H82        32.4570    0.0514   -3.4292 H         1 UNK         0.1406 
     83 H83        29.0337   -1.4622   -1.3400 H         1 UNK         0.1631 
     84 H84        30.3815    1.1747   -3.6950 H         1 UNK         0.0717 
     85 H85        29.7658    1.3297   -2.0658 H         1 UNK         0.0717 
     86 H86        29.6232   -0.7311   -5.1921 H         1 UNK         0.0934 
     87 H87        28.3826   -1.8427   -4.7045 H         1 UNK         0.0934 
     88 H88        28.0002   -1.1341   -7.0199 H         1 UNK         0.0739 
     89 H89        26.0373   -0.9389   -5.0652 H         1 UNK         0.3093 
     90 H90        23.3306    0.4615   -6.7843 H         1 UNK         0.0818 
     91 H91        23.1937   -1.7806   -7.8945 H         1 UNK         0.0819 
     92 H92        23.6081   -2.5686   -6.3781 H         1 UNK         0.0819 
     93 H93        22.0919   -1.6783   -6.5321 H         1 UNK         0.0819 
     94 H94        23.3796   -1.0896   -4.4024 H         1 UNK         0.3041 
     95 H95        25.2210    0.9108   -2.2742 H         1 UNK         0.0784 
     96 H96        23.1777    2.3690   -2.2534 H         1 UNK         0.0793 
     97 H97        22.1576    0.9384   -2.1907 H         1 UNK         0.0793 
     98 H98        23.2437    1.3166   -0.8521 H         1 UNK         0.0793 
     99 H99        23.5804   -1.0302   -1.3380 H         1 UNK         0.3024 
    100 H100       24.9526   -3.0211   -0.6825 H         1 UNK         0.1171 
    101 H101       22.6015   -3.1589   -1.5378 H         1 UNK         0.0786 
    102 H102       23.1466   -3.9918   -2.9890 H         1 UNK         0.0786 
    103 H103       23.2702   -4.7754   -1.4169 H         1 UNK         0.0786 
    104 H104       25.8815   -4.1914   -3.2402 H         1 UNK         0.2977 
    105 H105       26.6772    1.8242   -5.5425 H         1 UNK         0.3127 
    106 H106       28.6476    3.6113   -6.6683 H         1 UNK         0.0770 
    107 H107       25.8584    4.1614   -5.5153 H         1 UNK         0.0814 
    108 H108       27.0837    5.3758   -5.8574 H         1 UNK         0.0814 
    109 H109       27.3709    4.1728   -4.6097 H         1 UNK         0.0814 
    110 H110       25.4899    2.3840   -7.7358 H         1 UNK         0.2983 
    111 H111       25.2386    4.1787  -10.0147 H         1 UNK         0.0947 
    112 H112       23.3122    2.7172  -10.5960 H         1 UNK         0.0806 
    113 H113       23.2279    3.2051   -8.9113 H         1 UNK         0.0806 
    114 H114       23.7565    1.5773   -9.3355 H         1 UNK         0.0806 
    115 H115       26.3252    0.8230   -9.4627 H         1 UNK         0.3000 
    116 H116       27.0224    0.2427  -12.1902 H         1 UNK         0.0850 
    117 H117       28.1568   -1.7269  -11.1545 H         1 UNK         0.0810 
    118 H118       26.5531   -1.5096  -10.4697 H         1 UNK         0.0810 
    119 H119       27.9772   -1.0145   -9.5569 H         1 UNK         0.0810 
    120 H120       28.6134    2.0788   -9.7413 H         1 UNK         0.3040 
    121 H121       30.5330    3.1189   -9.4683 H         1 UNK         0.0766 
    122 H122       31.1297    2.6806  -12.4439 H         1 UNK         0.0812 
    123 H123       31.9114    3.8386  -11.3801 H         1 UNK         0.0812 
    124 H124       30.2123    4.0328  -11.7801 H         1 UNK         0.0812 
    125 H125       30.3920    0.6026   -8.5895 H         1 UNK         0.3205 
    126 H126       32.7183   -1.0080   -9.3749 H         1 UNK         0.0754 
    127 H127       31.8792   -2.5294   -7.5755 H         1 UNK         0.0769 
    128 H128       30.5891   -2.1125   -8.6944 H         1 UNK         0.0769 
    129 H129       30.6735   -1.3385   -7.1145 H         1 UNK         0.0769 
    130 H130       34.4837   -1.4506   -8.0415 H         1 UNK         0.2981 
    131 H131       36.1920   -1.0772   -6.7311 H         1 UNK         0.0541 
    132 H132       36.3481    2.5122   -8.1970 H         1 UNK         0.3459 
    133 H133       35.2143    1.2647   -8.6515 H         1 UNK         0.3459 
    134 H134       34.3321    0.2728   -4.7161 H         1 UNK         0.0612 
    135 H135       35.9566   -0.2729   -4.3979 H         1 UNK         0.0612 
    136 H136       34.6728   -2.7887   -2.2644 H         1 UNK         0.0624 
    137 H137       34.7610   -1.0545   -2.4029 H         1 UNK         0.0624 
@<TRIPOS>BOND
     1    1    2 1    
     2    1   72 1    
     3    1   73 1    
     4    1   74 1    
     5    2    3 2    
     6    2    4 am   BACKBONE|DICT|INTERRES
     7    4    5 1    
     8    4   75 1    
     9    5    6 1    
    10    5   35 1    
    11    5   76 1    
    12    6    7 1    
    13    6   77 1    
    14    6   78 1    
    15    7    8 1    
    16    8    9 1    
    17    8   79 1    
    18    8   80 1    
    19    9   10 ar   
    20    9   14 ar   
    21   10   11 ar   
    22   10   81 1    
    23   11   12 ar   
    24   11   71 1    
    25   12   13 ar   
    26   12   82 1    
    27   13   14 ar   
    28   13   15 1    
    29   14   83 1    
    30   15   16 1    
    31   15   84 1    
    32   15   85 1    
    33   16   17 1    
    34   17   18 1    
    35   17   86 1    
    36   17   87 1    
    37   18   19 1    
    38   18   37 1    
    39   18   88 1    
    40   19   20 am   BACKBONE|DICT|INTERRES
    41   19   89 1    
    42   20   21 2    
    43   20   22 1    
    44   22   23 1    
    45   22   24 1    
    46   22   90 1    
    47   23   91 1    
    48   23   92 1    
    49   23   93 1    
    50   24   25 am   BACKBONE|DICT|INTERRES
    51   24   94 1    
    52   25   26 2    
    53   25   27 1    
    54   27   28 1    
    55   27   29 1    
    56   27   95 1    
    57   28   96 1    
    58   28   97 1    
    59   28   98 1    
    60   29   30 am   BACKBONE|DICT|INTERRES
    61   29   99 1    
    62   30   31 2    
    63   30   32 1    
    64   32   33 1    
    65   32   34 1    
    66   32  100 1    
    67   33  101 1    
    68   33  102 1    
    69   33  103 1    
    70   34   35 am   BACKBONE|DICT|INTERRES
    71   34  104 1    
    72   35   36 2    
    73   37   38 2    
    74   37   39 am   BACKBONE|DICT|INTERRES
    75   39   40 1    
    76   39  105 1    
    77   40   41 1    
    78   40   42 1    
    79   40  106 1    
    80   41  107 1    
    81   41  108 1    
    82   41  109 1    
    83   42   43 2    
    84   42   44 am   BACKBONE|DICT|INTERRES
    85   44   45 1    
    86   44  110 1    
    87   45   46 1    
    88   45   47 1    
    89   45  111 1    
    90   46  112 1    
    91   46  113 1    
    92   46  114 1    
    93   47   48 2    
    94   47   49 am   BACKBONE|DICT|INTERRES
    95   49   50 1    
    96   49  115 1    
    97   50   51 1    
    98   50   52 1    
    99   50  116 1    
   100   51  117 1    
   101   51  118 1    
   102   51  119 1    
   103   52   53 2    
   104   52   54 am   BACKBONE|DICT|INTERRES
   105   54   55 1    
   106   54  120 1    
   107   55   56 1    
   108   55   57 1    
   109   55  121 1    
   110   56  122 1    
   111   56  123 1    
   112   56  124 1    
   113   57   58 2    
   114   57   59 am   BACKBONE|DICT|INTERRES
   115   59   60 1    
   116   59  125 1    
   117   60   61 1    
   118   60   62 1    
   119   60  126 1    
   120   61  127 1    
   121   61  128 1    
   122   61  129 1    
   123   62   63 2    
   124   62   64 am   BACKBONE|DICT|INTERRES
   125   64   65 1    
   126   64  130 1    
   127   65   66 1    
   128   65   69 1    
   129   65  131 1    
   130   66   67 am   BACKBONE|DICT|INTERRES
   131   66   68 2    
   132   67  132 1    
   133   67  133 1    
   134   69   70 1    
   135   69  134 1    
   136   69  135 1    
   137   70   71 1    
   138   71  136 1    
   139   71  137 1    
@<TRIPOS>SUBSTRUCTURE
     1 UNK         1 GROUP             0       ****    0 ROOT    
