@<TRIPOS>MOLECULE
3R137
137   139    1
SMALL
USER_CHARGES


@<TRIPOS>ATOM
      1 CA         30.4056   -5.5022   -4.6725 C.3       0 UNK        -0.2020 
      2 C          29.2066   -5.7379   -3.7685 C.2       0 UNK         0.4855 
      3 O          28.7433   -6.8715   -3.6419 O.2       0 UNK        -0.5197 
      4 N          28.7008   -4.6731   -3.1429 N.am      1 UNK        -0.4892 
      5 CA         27.5368   -4.6660   -2.2621 C.3       1 UNK         0.0835 
      6 C6         27.8683   -5.1915   -0.8364 C.3       12 UNK        -0.0855 
      7 S7         28.8470   -4.0941    0.2512 S.3       12 UNK        -0.2931 
      8 C8         30.5521   -4.2440   -0.4050 C.3       12 UNK         0.0378 
      9 C9         30.9958   -3.0993   -1.3227 C.ar      12 UNK        -0.0802 
     10 C10        32.0752   -3.2944   -2.1926 C.ar      12 UNK        -0.0944 
     11 C11        32.5259   -2.2572   -3.0170 C.ar      12 UNK        -0.0787 
     12 C12        31.8762   -1.0202   -2.9842 C.ar      12 UNK        -0.0862 
     13 C13        30.7962   -0.8029   -2.1265 C.ar      12 UNK        -0.0733 
     14 C14        30.3818   -1.8412   -1.2848 C.ar      12 UNK        -0.0832 
     15 C15        30.1138    0.5646   -2.1081 C.3       12 UNK         0.0240 
     16 S16        28.3251    0.4634   -1.7635 S.3       12 UNK        -0.2522 
     17 C17        27.6147    1.7907   -2.7832 C.3       12 UNK        -0.0967 
     18 CA         27.7577    1.6040   -4.3190 C.3       5 UNK         0.0660 
     19 N          27.5603    0.2257   -4.7881 N.am      5 UNK        -0.4015 
     20 C          27.8074   -0.1865   -6.0423 C.2       4 UNK         0.4946 
     21 O          28.3118    0.5239   -6.9102 O.2       4 UNK        -0.5353 
     22 CA         27.3636   -1.6051   -6.4264 C.3       4 UNK         0.0277 
     23 CB         28.4848   -2.6238   -6.1775 C.3       4 UNK        -0.1981 
     24 N          26.1395   -1.9991   -5.7318 N.am      4 UNK        -0.4209 
     25 C          24.9265   -1.5153   -6.0399 C.2       3 UNK         0.4942 
     26 O          24.7242   -0.7325   -6.9681 O.2       3 UNK        -0.5208 
     27 CA         23.7469   -1.9411   -5.1483 C.3       3 UNK         0.0250 
     28 CB         23.0664   -3.1945   -5.7203 C.3       3 UNK        -0.1990 
     29 N          24.1366   -2.1881   -3.7581 N.am      3 UNK        -0.4232 
     30 C          24.5930   -1.2473   -2.9191 C.2       2 UNK         0.4993 
     31 O          24.6800   -0.0536   -3.2132 O.2       2 UNK        -0.5286 
     32 CA         25.0957   -1.7397   -1.5485 C.3       2 UNK         0.0209 
     33 CB         23.9348   -1.8237   -0.5450 C.3       2 UNK        -0.1931 
     34 N          25.8021   -3.0313   -1.5972 N.am      2 UNK        -0.4546 
     35 C          26.9043   -3.2607   -2.3269 C.2       1 UNK         0.5154 
     36 O          27.3959   -2.4134   -3.0776 O.2       1 UNK        -0.5181 
     37 C          26.8138    2.5827   -5.0434 C.2       5 UNK         0.5014 
     38 O          27.2471    3.6703   -5.4242 O.2       5 UNK        -0.5248 
     39 N          25.5492    2.1705   -5.2275 N.am      6 UNK        -0.4434 
     40 CA         24.5303    2.9174   -5.9691 C.3       6 UNK         0.0363 
     41 CB         23.1545    2.2632   -5.7651 C.3       6 UNK        -0.1936 
     42 C          24.8621    3.0519   -7.4662 C.2       6 UNK         0.5081 
     43 O          24.6681    4.1287   -8.0309 O.2       6 UNK        -0.5248 
     44 N          25.3756    1.9730   -8.0759 N.am      7 UNK        -0.4718 
     45 CA         25.8760    1.9622   -9.4551 C.3       7 UNK         0.0273 
     46 CB         26.0748    0.5094   -9.9129 C.3       7 UNK        -0.1935 
     47 C          27.1793    2.7636   -9.6316 C.2       7 UNK         0.5018 
     48 O          27.4059    3.3161  -10.7088 O.2       7 UNK        -0.5186 
     49 N          28.0151    2.7934   -8.5837 N.am      8 UNK        -0.4240 
     50 CA         29.2953    3.4939   -8.4162 C.3       8 UNK         0.0235 
     51 CB         29.1389    5.0168   -8.5894 C.3       8 UNK        -0.2000 
     52 C          30.4395    2.9427   -9.2822 C.2       8 UNK         0.4941 
     53 O          31.5362    2.7288   -8.7673 O.2       8 UNK        -0.5273 
     54 N          30.1737    2.7033  -10.5712 N.am      9 UNK        -0.4262 
     55 CA         31.1236    2.1336  -11.5306 C.3       9 UNK         0.0264 
     56 CB         30.6114    2.3986  -12.9557 C.3       9 UNK        -0.1955 
     57 C          31.3755    0.6285  -11.3229 C.2       9 UNK         0.5031 
     58 O          32.4014    0.1230  -11.7803 O.2       9 UNK        -0.5390 
     59 N          30.4340   -0.0631  -10.6660 N.am      10 UNK        -0.4204 
     60 CA         30.4589   -1.5097  -10.4436 C.3       10 UNK         0.0237 
     61 CB         29.0562   -1.9756  -10.0274 C.3       10 UNK        -0.1985 
     62 C          31.5033   -1.9684   -9.4115 C.2       10 UNK         0.4970 
     63 O          32.0292   -3.0728   -9.5534 O.2       10 UNK        -0.4914 
     64 N          31.7772   -1.1396   -8.3972 N.am      11 UNK        -0.4285 
     65 CA         32.7278   -1.4265   -7.3186 C.3       11 UNK         0.1007 
     66 C          33.1753   -0.0964   -6.6691 C.2       11 UNK         0.5703 
     67 N          34.4730    0.1697   -6.6105 N.am      11 UNK        -0.7361 
     68 O          32.3529    0.6799   -6.1893 O.2       11 UNK        -0.4986 
     69 C69        32.1418   -2.4213   -6.2766 C.3       12 UNK        -0.0947 
     70 S70        33.4078   -3.4114   -5.4144 S.3       12 UNK        -0.2240 
     71 C71        33.7473   -2.4458   -3.9079 C.3       12 UNK         0.0194 
     72 H72        30.1756   -5.8035   -5.6941 H         1 UNK         0.0906 
     73 H73        30.6942   -4.4522   -4.6854 H         1 UNK         0.0906 
     74 H74        31.2603   -6.0827   -4.3266 H         1 UNK         0.0906 
     75 H75        29.0786   -3.7454   -3.2975 H         1 UNK         0.3140 
     76 H76        26.7953   -5.3378   -2.7003 H         1 UNK         0.1085 
     77 H77        28.3761   -6.1549   -0.9033 H         1 UNK         0.0836 
     78 H78        26.9369   -5.4070   -0.3109 H         1 UNK         0.0836 
     79 H79        30.6573   -5.1995   -0.9210 H         1 UNK         0.0731 
     80 H80        31.2378   -4.2779    0.4423 H         1 UNK         0.0731 
     81 H81        32.5799   -4.2508   -2.2177 H         1 UNK         0.1312 
     82 H82        32.2211   -0.2176   -3.6220 H         1 UNK         0.1406 
     83 H83        29.5688   -1.6621   -0.5975 H         1 UNK         0.1631 
     84 H84        30.2734    1.0624   -3.0643 H         1 UNK         0.0717 
     85 H85        30.5858    1.1899   -1.3495 H         1 UNK         0.0717 
     86 H86        26.5619    1.8521   -2.4985 H         1 UNK         0.0934 
     87 H87        28.0594    2.7396   -2.4773 H         1 UNK         0.0934 
     88 H88        28.7751    1.8841   -4.5985 H         1 UNK         0.0739 
     89 H89        27.2093   -0.4399   -4.1089 H         1 UNK         0.3093 
     90 H90        27.1418   -1.6105   -7.4943 H         1 UNK         0.0818 
     91 H91        28.8973   -2.5428   -5.1724 H         1 UNK         0.0819 
     92 H92        28.1421   -3.6477   -6.3264 H         1 UNK         0.0819 
     93 H93        29.3034   -2.4526   -6.8749 H         1 UNK         0.0819 
     94 H94        26.2526   -2.5657   -4.9015 H         1 UNK         0.3041 
     95 H95        23.0212   -1.1250   -5.1526 H         1 UNK         0.0784 
     96 H96        22.7451   -3.0271   -6.7495 H         1 UNK         0.0793 
     97 H97        23.7375   -4.0544   -5.7245 H         1 UNK         0.0793 
     98 H98        22.1792   -3.4620   -5.1460 H         1 UNK         0.0793 
     99 H99        24.0945   -3.1423   -3.4309 H         1 UNK         0.3024 
    100 H100       25.8050   -0.9939   -1.1842 H         1 UNK         0.1171 
    101 H101       24.2932   -2.0621    0.4566 H         1 UNK         0.0786 
    102 H102       23.4071   -0.8710   -0.4792 H         1 UNK         0.0786 
    103 H103       23.2049   -2.5820   -0.8311 H         1 UNK         0.0786 
    104 H104       25.4460   -3.7655   -1.0022 H         1 UNK         0.2977 
    105 H105       25.2665    1.2851   -4.8210 H         1 UNK         0.3127 
    106 H106       24.4904    3.9246   -5.5487 H         1 UNK         0.0770 
    107 H107       23.1178    1.2558   -6.1793 H         1 UNK         0.0814 
    108 H108       22.3725    2.8440   -6.2559 H         1 UNK         0.0814 
    109 H109       22.8970    2.2000   -4.7076 H         1 UNK         0.0814 
    110 H110       25.4184    1.0977   -7.5630 H         1 UNK         0.2983 
    111 H111       25.1197    2.4226  -10.0946 H         1 UNK         0.0947 
    112 H112       26.4262    0.4665  -10.9448 H         1 UNK         0.0806 
    113 H113       25.1418   -0.0526   -9.8635 H         1 UNK         0.0806 
    114 H114       26.8070   -0.0075   -9.2941 H         1 UNK         0.0806 
    115 H115       27.7816    2.1850   -7.8037 H         1 UNK         0.3000 
    116 H116       29.5810    3.3133   -7.3782 H         1 UNK         0.0850 
    117 H117       30.0735    5.5311   -8.3620 H         1 UNK         0.0810 
    118 H118       28.3785    5.4119   -7.9152 H         1 UNK         0.0810 
    119 H119       28.8590    5.2885   -9.6075 H         1 UNK         0.0810 
    120 H120       29.2387    2.9286  -10.9045 H         1 UNK         0.3040 
    121 H121       32.0812    2.6450  -11.4104 H         1 UNK         0.0766 
    122 H122       30.5012    3.4665  -13.1453 H         1 UNK         0.0812 
    123 H123       29.6448    1.9249  -13.1322 H         1 UNK         0.0812 
    124 H124       31.3071    2.0090  -13.7003 H         1 UNK         0.0812 
    125 H125       29.6306    0.4415  -10.3229 H         1 UNK         0.3205 
    126 H126       30.7071   -1.9915  -11.3920 H         1 UNK         0.0754 
    127 H127       29.0359   -3.0503   -9.8402 H         1 UNK         0.0769 
    128 H128       28.3199   -1.7681  -10.8042 H         1 UNK         0.0769 
    129 H129       28.7341   -1.4772   -9.1150 H         1 UNK         0.0769 
    130 H130       31.3314   -0.2330   -8.3473 H         1 UNK         0.2981 
    131 H131       33.6034   -1.8856   -7.7829 H         1 UNK         0.0541 
    132 H132       35.1555   -0.4674   -6.9904 H         1 UNK         0.3459 
    133 H133       34.7751    1.0312   -6.1839 H         1 UNK         0.3459 
    134 H134       31.4787   -1.9242   -5.5684 H         1 UNK         0.0612 
    135 H135       31.5177   -3.1578   -6.7827 H         1 UNK         0.0612 
    136 H136       34.1707   -1.4809   -4.1888 H         1 UNK         0.0624 
    137 H137       34.5256   -2.9575   -3.3402 H         1 UNK         0.0624 
@<TRIPOS>BOND
     1    1    2 1    
     2    1   72 1    
     3    1   73 1    
     4    1   74 1    
     5    2    3 2    
     6    2    4 am   BACKBONE|DICT|INTERRES
     7    4    5 1    
     8    4   75 1    
     9    5    6 1    
    10    5   35 1    
    11    5   76 1    
    12    6    7 1    
    13    6   77 1    
    14    6   78 1    
    15    7    8 1    
    16    8    9 1    
    17    8   79 1    
    18    8   80 1    
    19    9   10 ar   
    20    9   14 ar   
    21   10   11 ar   
    22   10   81 1    
    23   11   12 ar   
    24   11   71 1    
    25   12   13 ar   
    26   12   82 1    
    27   13   14 ar   
    28   13   15 1    
    29   14   83 1    
    30   15   16 1    
    31   15   84 1    
    32   15   85 1    
    33   16   17 1    
    34   17   18 1    
    35   17   86 1    
    36   17   87 1    
    37   18   19 1    
    38   18   37 1    
    39   18   88 1    
    40   19   20 am   BACKBONE|DICT|INTERRES
    41   19   89 1    
    42   20   21 2    
    43   20   22 1    
    44   22   23 1    
    45   22   24 1    
    46   22   90 1    
    47   23   91 1    
    48   23   92 1    
    49   23   93 1    
    50   24   25 am   BACKBONE|DICT|INTERRES
    51   24   94 1    
    52   25   26 2    
    53   25   27 1    
    54   27   28 1    
    55   27   29 1    
    56   27   95 1    
    57   28   96 1    
    58   28   97 1    
    59   28   98 1    
    60   29   30 am   BACKBONE|DICT|INTERRES
    61   29   99 1    
    62   30   31 2    
    63   30   32 1    
    64   32   33 1    
    65   32   34 1    
    66   32  100 1    
    67   33  101 1    
    68   33  102 1    
    69   33  103 1    
    70   34   35 am   BACKBONE|DICT|INTERRES
    71   34  104 1    
    72   35   36 2    
    73   37   38 2    
    74   37   39 am   BACKBONE|DICT|INTERRES
    75   39   40 1    
    76   39  105 1    
    77   40   41 1    
    78   40   42 1    
    79   40  106 1    
    80   41  107 1    
    81   41  108 1    
    82   41  109 1    
    83   42   43 2    
    84   42   44 am   BACKBONE|DICT|INTERRES
    85   44   45 1    
    86   44  110 1    
    87   45   46 1    
    88   45   47 1    
    89   45  111 1    
    90   46  112 1    
    91   46  113 1    
    92   46  114 1    
    93   47   48 2    
    94   47   49 am   BACKBONE|DICT|INTERRES
    95   49   50 1    
    96   49  115 1    
    97   50   51 1    
    98   50   52 1    
    99   50  116 1    
   100   51  117 1    
   101   51  118 1    
   102   51  119 1    
   103   52   53 2    
   104   52   54 am   BACKBONE|DICT|INTERRES
   105   54   55 1    
   106   54  120 1    
   107   55   56 1    
   108   55   57 1    
   109   55  121 1    
   110   56  122 1    
   111   56  123 1    
   112   56  124 1    
   113   57   58 2    
   114   57   59 am   BACKBONE|DICT|INTERRES
   115   59   60 1    
   116   59  125 1    
   117   60   61 1    
   118   60   62 1    
   119   60  126 1    
   120   61  127 1    
   121   61  128 1    
   122   61  129 1    
   123   62   63 2    
   124   62   64 am   BACKBONE|DICT|INTERRES
   125   64   65 1    
   126   64  130 1    
   127   65   66 1    
   128   65   69 1    
   129   65  131 1    
   130   66   67 am   BACKBONE|DICT|INTERRES
   131   66   68 2    
   132   67  132 1    
   133   67  133 1    
   134   69   70 1    
   135   69  134 1    
   136   69  135 1    
   137   70   71 1    
   138   71  136 1    
   139   71  137 1    
@<TRIPOS>SUBSTRUCTURE
     1 UNK         1 GROUP             0       ****    0 ROOT    
