@<TRIPOS>MOLECULE
3R137
137   139    1
SMALL
USER_CHARGES


@<TRIPOS>ATOM
      1 CA         29.0239   -0.7104    0.7472 C.3       0 UNK        -0.2020 
      2 C          29.7781   -0.7527   -0.5792 C.2       0 UNK         0.4855 
      3 O          30.4332    0.2305   -0.9163 O.2       0 UNK        -0.5197 
      4 N          29.7334   -1.8364   -1.3705 N.am      1 UNK        -0.4892 
      5 CA         28.9994   -3.0992   -1.1981 C.3       1 UNK         0.0835 
      6 C6         29.6495   -4.0517   -0.1527 C.3       12 UNK        -0.0855 
      7 S7         29.2725   -5.8110   -0.4822 S.3       12 UNK        -0.2931 
      8 C8         30.7350   -6.3599   -1.4228 C.3       12 UNK         0.0378 
      9 C9         30.9121   -5.5604   -2.7050 C.ar      12 UNK        -0.0802 
     10 C10        31.9747   -4.6616   -2.8301 C.ar      12 UNK        -0.0944 
     11 C11        32.1115   -3.8837   -3.9820 C.ar      12 UNK        -0.0787 
     12 C12        31.1772   -4.0071   -5.0148 C.ar      12 UNK        -0.0862 
     13 C13        30.1062   -4.8988   -4.8982 C.ar      12 UNK        -0.0733 
     14 C14        29.9902   -5.6873   -3.7492 C.ar      12 UNK        -0.0832 
     15 C15        29.0605   -5.0027   -5.9994 C.3       12 UNK         0.0240 
     16 S16        27.5455   -4.0859   -5.5678 S.3       12 UNK        -0.2522 
     17 C17        28.0624   -2.3542   -5.8202 C.3       12 UNK        -0.0967 
     18 CA         27.2203   -1.6349   -6.9025 C.3       5 UNK         0.0660 
     19 N          25.7845   -1.6312   -6.6046 N.am      5 UNK        -0.4015 
     20 C          24.8259   -1.2612   -7.4665 C.2       4 UNK         0.4946 
     21 O          25.0434   -0.9134   -8.6260 O.2       4 UNK        -0.5353 
     22 CA         23.3841   -1.2296   -6.9325 C.3       4 UNK         0.0277 
     23 CB         22.7751   -2.6409   -6.9288 C.3       4 UNK        -0.1981 
     24 N          23.2939   -0.6482   -5.5914 N.am      4 UNK        -0.4209 
     25 C          23.6001    0.6232   -5.2920 C.2       3 UNK         0.4942 
     26 O          23.9187    1.4655   -6.1292 O.2       3 UNK        -0.5208 
     27 CA         23.6052    1.0063   -3.8014 C.3       3 UNK         0.0250 
     28 CB         22.2153    1.4968   -3.3662 C.3       3 UNK        -0.1990 
     29 N          24.0425   -0.0831   -2.9210 N.am      3 UNK        -0.4232 
     30 C          25.2412   -0.6789   -2.9823 C.2       2 UNK         0.4993 
     31 O          26.1291   -0.3636   -3.7816 O.2       2 UNK        -0.5286 
     32 CA         25.4530   -1.8691   -2.0434 C.3       2 UNK         0.0209 
     33 CB         24.6792   -3.1031   -2.5511 C.3       2 UNK        -0.1931 
     34 N          26.8792   -2.1709   -1.9816 N.am      2 UNK        -0.4546 
     35 C          27.4782   -2.8939   -1.0301 C.2       1 UNK         0.5154 
     36 O          26.8858   -3.3459   -0.0483 O.2       1 UNK        -0.5181 
     37 C          27.7379   -0.2025   -7.1224 C.2       5 UNK         0.5014 
     38 O          28.4750    0.0328   -8.0831 O.2       5 UNK        -0.5248 
     39 N          27.3187    0.7261   -6.2480 N.am      6 UNK        -0.4434 
     40 CA         27.6189    2.1580   -6.3288 C.3       6 UNK         0.0363 
     41 CB         27.0697    2.8782   -5.0881 C.3       6 UNK        -0.1936 
     42 C          27.1009    2.8107   -7.6211 C.2       6 UNK         0.5081 
     43 O          27.8298    3.5863   -8.2389 O.2       6 UNK        -0.5248 
     44 N          25.8693    2.4645   -8.0197 N.am      7 UNK        -0.4718 
     45 CA         25.2554    2.8947   -9.2766 C.3       7 UNK         0.0273 
     46 CB         23.7574    2.5506   -9.2623 C.3       7 UNK        -0.1935 
     47 C          25.9386    2.2890  -10.5141 C.2       7 UNK         0.5018 
     48 O          26.0980    2.9924  -11.5126 O.2       7 UNK        -0.5186 
     49 N          26.3201    1.0055  -10.4333 N.am      8 UNK        -0.4240 
     50 CA         26.9825    0.2696  -11.5110 C.3       8 UNK         0.0235 
     51 CB         26.9994   -1.2344  -11.1919 C.3       8 UNK        -0.2000 
     52 C          28.4019    0.7736  -11.8128 C.2       8 UNK         0.4941 
     53 O          28.7234    0.9703  -12.9862 O.2       8 UNK        -0.5273 
     54 N          29.2252    0.9605  -10.7710 N.am      9 UNK        -0.4262 
     55 CA         30.6286    1.3686  -10.9160 C.3       9 UNK         0.0264 
     56 CB         31.4802    0.1881  -11.4286 C.3       9 UNK        -0.1955 
     57 C          31.2591    1.9412   -9.6379 C.2       9 UNK         0.5031 
     58 O          32.1608    2.7728   -9.7583 O.2       9 UNK        -0.5390 
     59 N          30.8142    1.4764   -8.4603 N.am      10 UNK        -0.4204 
     60 CA         31.3949    1.6914   -7.1274 C.3       10 UNK         0.0237 
     61 CB         31.4840    3.1926   -6.7737 C.3       10 UNK        -0.1985 
     62 C          32.7395    0.9655   -6.9301 C.2       10 UNK         0.4970 
     63 O          33.3191    0.4292   -7.8774 O.2       10 UNK        -0.4914 
     64 N          33.1891    0.9271   -5.6717 N.am      11 UNK        -0.4285 
     65 CA         34.4001    0.2100   -5.2394 C.3       11 UNK         0.1007 
     66 C          35.7275    0.9928   -5.4576 C.2       11 UNK         0.5703 
     67 N          35.6998    2.2464   -5.8949 N.am      11 UNK        -0.7361 
     68 O          36.8060    0.4472   -5.2360 O.2       11 UNK        -0.4986 
     69 C69        34.2743   -0.2995   -3.7783 C.3       12 UNK        -0.0947 
     70 S70        32.7522   -1.2617   -3.4836 S.3       12 UNK        -0.2240 
     71 C71        33.2571   -2.8937   -4.0989 C.3       12 UNK         0.0194 
     72 H72        29.4346    0.0691    1.3887 H         1 UNK         0.0906 
     73 H73        27.9718   -0.4811    0.5816 H         1 UNK         0.0906 
     74 H74        29.0977   -1.6467    1.2944 H         1 UNK         0.0906 
     75 H75        30.2793   -1.7946   -2.2210 H         1 UNK         0.3140 
     76 H76        29.0931   -3.5815   -2.1708 H         1 UNK         0.1085 
     77 H77        30.7335   -3.9276   -0.1532 H         1 UNK         0.0836 
     78 H78        29.3289   -3.8191    0.8628 H         1 UNK         0.0836 
     79 H79        31.6195   -6.2845   -0.7882 H         1 UNK         0.0731 
     80 H80        30.6236   -7.4168   -1.6694 H         1 UNK         0.0731 
     81 H81        32.6862   -4.5509   -2.0229 H         1 UNK         0.1312 
     82 H82        31.2782   -3.3959   -5.9012 H         1 UNK         0.1406 
     83 H83        29.1575   -6.3708   -3.6487 H         1 UNK         0.1631 
     84 H84        28.8034   -6.0513   -6.1567 H         1 UNK         0.0717 
     85 H85        29.4540   -4.6405   -6.9505 H         1 UNK         0.0717 
     86 H86        27.9969   -1.8384   -4.8620 H         1 UNK         0.0934 
     87 H87        29.1173   -2.3283   -6.0964 H         1 UNK         0.0934 
     88 H88        27.3548   -2.1736   -7.8429 H         1 UNK         0.0739 
     89 H89        25.5280   -1.8685   -5.6584 H         1 UNK         0.3093 
     90 H90        22.7958   -0.6045   -7.6079 H         1 UNK         0.0818 
     91 H91        21.7260   -2.6195   -6.6332 H         1 UNK         0.0819 
     92 H92        22.8196   -3.0857   -7.9241 H         1 UNK         0.0819 
     93 H93        23.3026   -3.3114   -6.2489 H         1 UNK         0.0819 
     94 H94        23.0227   -1.2649   -4.8402 H         1 UNK         0.3041 
     95 H95        24.3104    1.8300   -3.6769 H         1 UNK         0.0784 
     96 H96        21.8794    2.3225   -3.9955 H         1 UNK         0.0793 
     97 H97        21.4656    0.7077   -3.4366 H         1 UNK         0.0793 
     98 H98        22.2262    1.8604   -2.3384 H         1 UNK         0.0793 
     99 H99        23.3712   -0.4065   -2.2387 H         1 UNK         0.3024 
    100 H100       25.1020   -1.5905   -1.0470 H         1 UNK         0.1171 
    101 H101       23.6092   -2.9040   -2.6189 H         1 UNK         0.0786 
    102 H102       24.8002   -3.9531   -1.8793 H         1 UNK         0.0786 
    103 H103       25.0199   -3.4131   -3.5400 H         1 UNK         0.0786 
    104 H104       27.4259   -1.7417   -2.7176 H         1 UNK         0.2977 
    105 H105       26.7493    0.4237   -5.4613 H         1 UNK         0.3127 
    106 H106       28.7015    2.2671   -6.3189 H         1 UNK         0.0770 
    107 H107       25.9812    2.8522   -5.0545 H         1 UNK         0.0814 
    108 H108       27.3683    3.9273   -5.0859 H         1 UNK         0.0814 
    109 H109       27.4456    2.4307   -4.1678 H         1 UNK         0.0814 
    110 H110       25.3019    1.8806   -7.4100 H         1 UNK         0.2983 
    111 H111       25.3546    3.9804   -9.3440 H         1 UNK         0.0947 
    112 H112       23.2724    2.8740  -10.1842 H         1 UNK         0.0806 
    113 H113       23.2460    3.0442   -8.4357 H         1 UNK         0.0806 
    114 H114       23.5912    1.4772   -9.1633 H         1 UNK         0.0806 
    115 H115       26.0798    0.4759   -9.6001 H         1 UNK         0.3000 
    116 H116       26.3876    0.4095  -12.4163 H         1 UNK         0.0850 
    117 H117       27.4927   -1.7975  -11.9853 H         1 UNK         0.0810 
    118 H118       25.9881   -1.6297  -11.0968 H         1 UNK         0.0810 
    119 H119       27.5295   -1.4456  -10.2630 H         1 UNK         0.0810 
    120 H120       28.8715    0.7860   -9.8347 H         1 UNK         0.3040 
    121 H121       30.6695    2.1689  -11.6585 H         1 UNK         0.0766 
    122 H122       32.5321    0.4677  -11.5055 H         1 UNK         0.0812 
    123 H123       31.1652   -0.1393  -12.4192 H         1 UNK         0.0812 
    124 H124       31.4201   -0.6686  -10.7565 H         1 UNK         0.0812 
    125 H125       30.0533    0.8005   -8.4644 H         1 UNK         0.3205 
    126 H126       30.6999    1.2197   -6.4322 H         1 UNK         0.0754 
    127 H127       31.6725    3.3382   -5.7098 H         1 UNK         0.0769 
    128 H128       30.5556    3.7132   -7.0092 H         1 UNK         0.0769 
    129 H129       32.2889    3.6917   -7.3141 H         1 UNK         0.0769 
    130 H130       32.6630    1.3805   -4.9397 H         1 UNK         0.2981 
    131 H131       34.4956   -0.6766   -5.8687 H         1 UNK         0.0541 
    132 H132       34.8224    2.6999   -6.0907 H         1 UNK         0.3459 
    133 H133       36.5674    2.7392   -6.0366 H         1 UNK         0.3459 
    134 H134       35.1334   -0.9156   -3.5060 H         1 UNK         0.0612 
    135 H135       34.2732    0.5430   -3.0845 H         1 UNK         0.0612 
    136 H136       33.5744   -2.8120   -5.1394 H         1 UNK         0.0624 
    137 H137       34.1222   -3.2453   -3.5345 H         1 UNK         0.0624 
@<TRIPOS>BOND
     1    1    2 1    
     2    1   72 1    
     3    1   73 1    
     4    1   74 1    
     5    2    3 2    
     6    2    4 am   BACKBONE|DICT|INTERRES
     7    4    5 1    
     8    4   75 1    
     9    5    6 1    
    10    5   35 1    
    11    5   76 1    
    12    6    7 1    
    13    6   77 1    
    14    6   78 1    
    15    7    8 1    
    16    8    9 1    
    17    8   79 1    
    18    8   80 1    
    19    9   10 ar   
    20    9   14 ar   
    21   10   11 ar   
    22   10   81 1    
    23   11   12 ar   
    24   11   71 1    
    25   12   13 ar   
    26   12   82 1    
    27   13   14 ar   
    28   13   15 1    
    29   14   83 1    
    30   15   16 1    
    31   15   84 1    
    32   15   85 1    
    33   16   17 1    
    34   17   18 1    
    35   17   86 1    
    36   17   87 1    
    37   18   19 1    
    38   18   37 1    
    39   18   88 1    
    40   19   20 am   BACKBONE|DICT|INTERRES
    41   19   89 1    
    42   20   21 2    
    43   20   22 1    
    44   22   23 1    
    45   22   24 1    
    46   22   90 1    
    47   23   91 1    
    48   23   92 1    
    49   23   93 1    
    50   24   25 am   BACKBONE|DICT|INTERRES
    51   24   94 1    
    52   25   26 2    
    53   25   27 1    
    54   27   28 1    
    55   27   29 1    
    56   27   95 1    
    57   28   96 1    
    58   28   97 1    
    59   28   98 1    
    60   29   30 am   BACKBONE|DICT|INTERRES
    61   29   99 1    
    62   30   31 2    
    63   30   32 1    
    64   32   33 1    
    65   32   34 1    
    66   32  100 1    
    67   33  101 1    
    68   33  102 1    
    69   33  103 1    
    70   34   35 am   BACKBONE|DICT|INTERRES
    71   34  104 1    
    72   35   36 2    
    73   37   38 2    
    74   37   39 am   BACKBONE|DICT|INTERRES
    75   39   40 1    
    76   39  105 1    
    77   40   41 1    
    78   40   42 1    
    79   40  106 1    
    80   41  107 1    
    81   41  108 1    
    82   41  109 1    
    83   42   43 2    
    84   42   44 am   BACKBONE|DICT|INTERRES
    85   44   45 1    
    86   44  110 1    
    87   45   46 1    
    88   45   47 1    
    89   45  111 1    
    90   46  112 1    
    91   46  113 1    
    92   46  114 1    
    93   47   48 2    
    94   47   49 am   BACKBONE|DICT|INTERRES
    95   49   50 1    
    96   49  115 1    
    97   50   51 1    
    98   50   52 1    
    99   50  116 1    
   100   51  117 1    
   101   51  118 1    
   102   51  119 1    
   103   52   53 2    
   104   52   54 am   BACKBONE|DICT|INTERRES
   105   54   55 1    
   106   54  120 1    
   107   55   56 1    
   108   55   57 1    
   109   55  121 1    
   110   56  122 1    
   111   56  123 1    
   112   56  124 1    
   113   57   58 2    
   114   57   59 am   BACKBONE|DICT|INTERRES
   115   59   60 1    
   116   59  125 1    
   117   60   61 1    
   118   60   62 1    
   119   60  126 1    
   120   61  127 1    
   121   61  128 1    
   122   61  129 1    
   123   62   63 2    
   124   62   64 am   BACKBONE|DICT|INTERRES
   125   64   65 1    
   126   64  130 1    
   127   65   66 1    
   128   65   69 1    
   129   65  131 1    
   130   66   67 am   BACKBONE|DICT|INTERRES
   131   66   68 2    
   132   67  132 1    
   133   67  133 1    
   134   69   70 1    
   135   69  134 1    
   136   69  135 1    
   137   70   71 1    
   138   71  136 1    
   139   71  137 1    
@<TRIPOS>SUBSTRUCTURE
     1 UNK         1 GROUP             0       ****    0 ROOT    
