@<TRIPOS>MOLECULE
3R137
137   139    1
SMALL
USER_CHARGES


@<TRIPOS>ATOM
      1 CA         30.0926    1.0580   -1.2417 C.3       0 UNK        -0.2020 
      2 C          29.4237   -0.2328   -1.6875 C.2       0 UNK         0.4855 
      3 O          28.9290   -0.3060   -2.8106 O.2       0 UNK        -0.5197 
      4 N          29.4032   -1.2517   -0.8195 N.am      1 UNK        -0.4892 
      5 CA         28.8152   -2.5705   -1.0781 C.3       1 UNK         0.0835 
      6 C6         29.4372   -3.6699   -0.1751 C.3       12 UNK        -0.0855 
      7 S7         31.2500   -3.8180   -0.3337 S.3       12 UNK        -0.2931 
      8 C8         31.4257   -5.2972   -1.3819 C.3       12 UNK         0.0378 
      9 C9         31.2781   -4.9536   -2.8559 C.ar      12 UNK        -0.0802 
     10 C10        32.3796   -4.4702   -3.5680 C.ar      12 UNK        -0.0944 
     11 C11        32.2651   -4.1367   -4.9222 C.ar      12 UNK        -0.0787 
     12 C12        31.0326   -4.3046   -5.5617 C.ar      12 UNK        -0.0862 
     13 C13        29.9270   -4.8021   -4.8659 C.ar      12 UNK        -0.0733 
     14 C14        30.0560   -5.1281   -3.5120 C.ar      12 UNK        -0.0832 
     15 C15        28.6029   -5.0161   -5.5873 C.3       12 UNK         0.0240 
     16 S16        27.2876   -3.9291   -4.9583 S.3       12 UNK        -0.2522 
     17 C17        27.8422   -2.2815   -5.5138 C.3       12 UNK        -0.0967 
     18 CA         27.0100   -1.7127   -6.6913 C.3       5 UNK         0.0660 
     19 N          25.5657   -1.7783   -6.4632 N.am      5 UNK        -0.4015 
     20 C          24.6372   -1.7362   -7.4284 C.2       4 UNK         0.4946 
     21 O          24.8993   -1.7150   -8.6311 O.2       4 UNK        -0.5353 
     22 CA         23.1635   -1.7005   -6.9829 C.3       4 UNK         0.0277 
     23 CB         22.5877   -3.1245   -6.9238 C.3       4 UNK        -0.1981 
     24 N          22.9622   -1.0423   -5.6887 N.am      4 UNK        -0.4209 
     25 C          23.1597    0.2644   -5.4603 C.2       3 UNK         0.4942 
     26 O          23.4864    1.0693   -6.3309 O.2       3 UNK        -0.5208 
     27 CA         23.0300    0.7399   -4.0014 C.3       3 UNK         0.0250 
     28 CB         21.5671    1.0751   -3.6705 C.3       3 UNK        -0.1990 
     29 N          23.5520   -0.2211   -3.0205 N.am      3 UNK        -0.4232 
     30 C          24.8104   -0.6818   -3.0034 C.2       2 UNK         0.4993 
     31 O          25.6706   -0.3447   -3.8207 O.2       2 UNK        -0.5286 
     32 CA         25.1440   -1.7407   -1.9489 C.3       2 UNK         0.0209 
     33 CB         24.4694   -3.0833   -2.2995 C.3       2 UNK        -0.1931 
     34 N          26.5957   -1.9025   -1.8917 N.am      2 UNK        -0.4546 
     35 C          27.2793   -2.5130   -0.9203 C.2       1 UNK         0.5154 
     36 O          26.7435   -2.9934    0.0813 O.2       1 UNK        -0.5181 
     37 C          27.4110   -0.2570   -6.9843 C.2       5 UNK         0.5014 
     38 O          28.0881    0.0020   -7.9798 O.2       5 UNK        -0.5248 
     39 N          26.9502    0.6716   -6.1316 N.am      6 UNK        -0.4434 
     40 CA         27.1790    2.1157   -6.2318 C.3       6 UNK         0.0363 
     41 CB         26.5660    2.8153   -5.0104 C.3       6 UNK        -0.1936 
     42 C          26.6527    2.7369   -7.5368 C.2       6 UNK         0.5081 
     43 O          27.2846    3.6532   -8.0608 O.2       6 UNK        -0.5248 
     44 N          25.5569    2.1913   -8.0838 N.am      7 UNK        -0.4718 
     45 CA         25.0206    2.5255   -9.4091 C.3       7 UNK         0.0273 
     46 CB         23.6907    1.7840   -9.6187 C.3       7 UNK        -0.1935 
     47 C          25.9888    2.2285  -10.5730 C.2       7 UNK         0.5018 
     48 O          25.8823    2.8714  -11.6177 O.2       7 UNK        -0.5186 
     49 N          26.9249    1.2920  -10.3668 N.am      8 UNK        -0.4240 
     50 CA         28.0224    0.9642  -11.2791 C.3       8 UNK         0.0235 
     51 CB         28.0968   -0.5672  -11.4241 C.3       8 UNK        -0.2000 
     52 C          29.3637    1.5522  -10.7918 C.2       8 UNK         0.4941 
     53 O          30.4133    1.1187  -11.2674 O.2       8 UNK        -0.5273 
     54 N          29.3146    2.5080   -9.8484 N.am      9 UNK        -0.4262 
     55 CA         30.4295    3.1934   -9.1791 C.3       9 UNK         0.0264 
     56 CB         31.3382    3.9230  -10.1919 C.3       9 UNK        -0.1955 
     57 C          31.2317    2.3160   -8.1959 C.2       9 UNK         0.5031 
     58 O          32.2619    2.7774   -7.7001 O.2       9 UNK        -0.5390 
     59 N          30.7416    1.1019   -7.8978 N.am      10 UNK        -0.4204 
     60 CA         31.3135    0.0974   -6.9956 C.3       10 UNK         0.0237 
     61 CB         31.0337    0.4826   -5.5240 C.3       10 UNK        -0.1985 
     62 C          32.7935   -0.2049   -7.3104 C.2       10 UNK         0.4970 
     63 O          33.0939   -0.6541   -8.4177 O.2       10 UNK        -0.4914 
     64 N          33.6748    0.0291   -6.3357 N.am      11 UNK        -0.4285 
     65 CA         35.1201   -0.2309   -6.3853 C.3       11 UNK         0.1007 
     66 C          35.9316    0.7254   -5.4631 C.2       11 UNK         0.5703 
     67 N          35.3835    1.8637   -5.0497 N.am      11 UNK        -0.7361 
     68 O          37.0827    0.4524   -5.1305 O.2       11 UNK        -0.4986 
     69 C69        35.4641   -1.7403   -6.2071 C.3       12 UNK        -0.0947 
     70 S70        34.5867   -2.5350   -4.8138 S.3       12 UNK        -0.2240 
     71 C71        33.4599   -3.6400   -5.7314 C.3       12 UNK         0.0194 
     72 H72        29.3736    1.8766   -1.2586 H         1 UNK         0.0906 
     73 H73        30.9088    1.3077   -1.9192 H         1 UNK         0.0906 
     74 H74        30.4988    0.9812   -0.2334 H         1 UNK         0.0906 
     75 H75        29.8205   -1.1372    0.0933 H         1 UNK         0.3140 
     76 H76        29.0214   -2.8418   -2.1163 H         1 UNK         0.1085 
     77 H77        29.2228   -3.4638    0.8756 H         1 UNK         0.0836 
     78 H78        28.9775   -4.6373   -0.3854 H         1 UNK         0.0836 
     79 H79        30.7081   -6.0633   -1.0843 H         1 UNK         0.0731 
     80 H80        32.4123   -5.7300   -1.2089 H         1 UNK         0.0731 
     81 H81        33.3275   -4.3540   -3.0608 H         1 UNK         0.1312 
     82 H82        30.9375   -4.0627   -6.6116 H         1 UNK         0.1406 
     83 H83        29.2020   -5.5140   -2.9718 H         1 UNK         0.1631 
     84 H84        28.2921   -6.0535   -5.4563 H         1 UNK         0.0717 
     85 H85        28.7087   -4.8624   -6.6624 H         1 UNK         0.0717 
     86 H86        27.7847   -1.6229   -4.6492 H         1 UNK         0.0934 
     87 H87        28.8993   -2.3158   -5.7815 H         1 UNK         0.0934 
     88 H88        27.2422   -2.3064   -7.5783 H         1 UNK         0.0739 
     89 H89        25.2731   -1.7474   -5.4968 H         1 UNK         0.3093 
     90 H90        22.6084   -1.1363   -7.7357 H         1 UNK         0.0818 
     91 H91        22.7003   -3.6299   -7.8841 H         1 UNK         0.0819 
     92 H92        23.0926   -3.7351   -6.1739 H         1 UNK         0.0819 
     93 H93        21.5232   -3.1137   -6.6891 H         1 UNK         0.0819 
     94 H94        22.6848   -1.6278   -4.9145 H         1 UNK         0.3041 
     95 H95        23.6169    1.6550   -3.9035 H         1 UNK         0.0784 
     96 H96        21.1648    1.8026   -4.3773 H         1 UNK         0.0793 
     97 H97        20.9282    0.1920   -3.7129 H         1 UNK         0.0793 
     98 H98        21.4746    1.5098   -2.6751 H         1 UNK         0.0793 
     99 H99        22.9015   -0.5504   -2.3211 H         1 UNK         0.3024 
    100 H100       24.7898   -1.3858   -0.9785 H         1 UNK         0.1171 
    101 H101       23.3838   -2.9862   -2.3356 H         1 UNK         0.0786 
    102 H102       24.7963   -3.4568   -3.2704 H         1 UNK         0.0786 
    103 H103       24.6921   -3.8506   -1.5582 H         1 UNK         0.0786 
    104 H104       27.1064   -1.4218   -2.6285 H         1 UNK         0.2977 
    105 H105       26.4254    0.3557   -5.3163 H         1 UNK         0.3127 
    106 H106       28.2591    2.2732   -6.2086 H         1 UNK         0.0770 
    107 H107       25.4822    2.7021   -4.9871 H         1 UNK         0.0814 
    108 H108       26.7831    3.8842   -5.0233 H         1 UNK         0.0814 
    109 H109       26.9663    2.4119   -4.0797 H         1 UNK         0.0814 
    110 H110       25.0361    1.5089   -7.5406 H         1 UNK         0.2983 
    111 H111       24.8214    3.5991   -9.4221 H         1 UNK         0.0947 
    112 H112       23.8224    0.7023   -9.5755 H         1 UNK         0.0806 
    113 H113       23.2573    2.0226  -10.5909 H         1 UNK         0.0806 
    114 H114       22.9575    2.0628   -8.8617 H         1 UNK         0.0806 
    115 H115       26.9603    0.8292   -9.4638 H         1 UNK         0.3000 
    116 H116       27.8307    1.3885  -12.2667 H         1 UNK         0.0850 
    117 H117       28.8524   -0.8578  -12.1551 H         1 UNK         0.0810 
    118 H118       27.1461   -0.9793  -11.7627 H         1 UNK         0.0810 
    119 H119       28.3526   -1.0499  -10.4802 H         1 UNK         0.0810 
    120 H120       28.4004    2.7876   -9.5060 H         1 UNK         0.3040 
    121 H121       29.9629    3.9613   -8.5606 H         1 UNK         0.0766 
    122 H122       31.9205    3.2245  -10.7931 H         1 UNK         0.0812 
    123 H123       32.0478    4.5747   -9.6807 H         1 UNK         0.0812 
    124 H124       30.7571    4.5487  -10.8692 H         1 UNK         0.0812 
    125 H125       29.8643    0.8257   -8.3287 H         1 UNK         0.3205 
    126 H126       30.7743   -0.8297   -7.1954 H         1 UNK         0.0754 
    127 H127       31.3861   -0.2875   -4.8357 H         1 UNK         0.0769 
    128 H128       29.9635    0.5879   -5.3458 H         1 UNK         0.0769 
    129 H129       31.5030    1.4274   -5.2476 H         1 UNK         0.0769 
    130 H130       33.3362    0.3858   -5.4545 H         1 UNK         0.2981 
    131 H131       35.4568    0.0492   -7.3850 H         1 UNK         0.0541 
    132 H132       35.9228    2.4762   -4.4580 H         1 UNK         0.3459 
    133 H133       34.4808    2.1594   -5.3858 H         1 UNK         0.3459 
    134 H134       36.5362   -1.8931   -6.0750 H         1 UNK         0.0612 
    135 H135       35.2216   -2.2695   -7.1295 H         1 UNK         0.0612 
    136 H136       34.0259   -4.5002   -6.0909 H         1 UNK         0.0624 
    137 H137       33.1007   -3.1127   -6.6161 H         1 UNK         0.0624 
@<TRIPOS>BOND
     1    1    2 1    
     2    1   72 1    
     3    1   73 1    
     4    1   74 1    
     5    2    3 2    
     6    2    4 am   BACKBONE|DICT|INTERRES
     7    4    5 1    
     8    4   75 1    
     9    5    6 1    
    10    5   35 1    
    11    5   76 1    
    12    6    7 1    
    13    6   77 1    
    14    6   78 1    
    15    7    8 1    
    16    8    9 1    
    17    8   79 1    
    18    8   80 1    
    19    9   10 ar   
    20    9   14 ar   
    21   10   11 ar   
    22   10   81 1    
    23   11   12 ar   
    24   11   71 1    
    25   12   13 ar   
    26   12   82 1    
    27   13   14 ar   
    28   13   15 1    
    29   14   83 1    
    30   15   16 1    
    31   15   84 1    
    32   15   85 1    
    33   16   17 1    
    34   17   18 1    
    35   17   86 1    
    36   17   87 1    
    37   18   19 1    
    38   18   37 1    
    39   18   88 1    
    40   19   20 am   BACKBONE|DICT|INTERRES
    41   19   89 1    
    42   20   21 2    
    43   20   22 1    
    44   22   23 1    
    45   22   24 1    
    46   22   90 1    
    47   23   91 1    
    48   23   92 1    
    49   23   93 1    
    50   24   25 am   BACKBONE|DICT|INTERRES
    51   24   94 1    
    52   25   26 2    
    53   25   27 1    
    54   27   28 1    
    55   27   29 1    
    56   27   95 1    
    57   28   96 1    
    58   28   97 1    
    59   28   98 1    
    60   29   30 am   BACKBONE|DICT|INTERRES
    61   29   99 1    
    62   30   31 2    
    63   30   32 1    
    64   32   33 1    
    65   32   34 1    
    66   32  100 1    
    67   33  101 1    
    68   33  102 1    
    69   33  103 1    
    70   34   35 am   BACKBONE|DICT|INTERRES
    71   34  104 1    
    72   35   36 2    
    73   37   38 2    
    74   37   39 am   BACKBONE|DICT|INTERRES
    75   39   40 1    
    76   39  105 1    
    77   40   41 1    
    78   40   42 1    
    79   40  106 1    
    80   41  107 1    
    81   41  108 1    
    82   41  109 1    
    83   42   43 2    
    84   42   44 am   BACKBONE|DICT|INTERRES
    85   44   45 1    
    86   44  110 1    
    87   45   46 1    
    88   45   47 1    
    89   45  111 1    
    90   46  112 1    
    91   46  113 1    
    92   46  114 1    
    93   47   48 2    
    94   47   49 am   BACKBONE|DICT|INTERRES
    95   49   50 1    
    96   49  115 1    
    97   50   51 1    
    98   50   52 1    
    99   50  116 1    
   100   51  117 1    
   101   51  118 1    
   102   51  119 1    
   103   52   53 2    
   104   52   54 am   BACKBONE|DICT|INTERRES
   105   54   55 1    
   106   54  120 1    
   107   55   56 1    
   108   55   57 1    
   109   55  121 1    
   110   56  122 1    
   111   56  123 1    
   112   56  124 1    
   113   57   58 2    
   114   57   59 am   BACKBONE|DICT|INTERRES
   115   59   60 1    
   116   59  125 1    
   117   60   61 1    
   118   60   62 1    
   119   60  126 1    
   120   61  127 1    
   121   61  128 1    
   122   61  129 1    
   123   62   63 2    
   124   62   64 am   BACKBONE|DICT|INTERRES
   125   64   65 1    
   126   64  130 1    
   127   65   66 1    
   128   65   69 1    
   129   65  131 1    
   130   66   67 am   BACKBONE|DICT|INTERRES
   131   66   68 2    
   132   67  132 1    
   133   67  133 1    
   134   69   70 1    
   135   69  134 1    
   136   69  135 1    
   137   70   71 1    
   138   71  136 1    
   139   71  137 1    
@<TRIPOS>SUBSTRUCTURE
     1 UNK         1 GROUP             0       ****    0 ROOT    
