@<TRIPOS>MOLECULE
3R137
137   139    1
SMALL
USER_CHARGES


@<TRIPOS>ATOM
      1 CA         25.9591   -3.2388    3.4584 C.3       0 UNK        -0.2020 
      2 C          26.5196   -2.1935    2.5058 C.2       0 UNK         0.4855 
      3 O          25.9496   -1.1096    2.3817 O.2       0 UNK        -0.5197 
      4 N          27.6341   -2.5088    1.8343 N.am      1 UNK        -0.4892 
      5 CA         28.3017   -1.6370    0.8579 C.3       1 UNK         0.0835 
      6 C6         29.8046   -1.9931    0.7247 C.3       12 UNK        -0.0855 
      7 S7         30.1252   -3.7129    0.1818 S.3       12 UNK        -0.2931 
      8 C8         31.6087   -3.5164   -0.8581 C.3       12 UNK         0.0378 
      9 C9         31.2860   -2.9369   -2.2294 C.ar      12 UNK        -0.0802 
     10 C10        31.4384   -1.5704   -2.4708 C.ar      12 UNK        -0.0944 
     11 C11        31.1612   -1.0305   -3.7285 C.ar      12 UNK        -0.0787 
     12 C12        30.7211   -1.8777   -4.7536 C.ar      12 UNK        -0.0862 
     13 C13        30.6051   -3.2598   -4.5442 C.ar      12 UNK        -0.0733 
     14 C14        30.8765   -3.7738   -3.2712 C.ar      12 UNK        -0.0832 
     15 C15        30.2477   -4.2519   -5.6561 C.3       12 UNK         0.0240 
     16 S16        29.7255   -3.5367   -7.2541 S.3       12 UNK        -0.2522 
     17 C17        28.0123   -3.0704   -6.8602 C.3       12 UNK        -0.0967 
     18 CA         27.4468   -1.9341   -7.7467 C.3       5 UNK         0.0660 
     19 N          25.9838   -1.8968   -7.6481 N.am      5 UNK        -0.4015 
     20 C          25.1681   -1.0890   -8.3387 C.2       4 UNK         0.4946 
     21 O          25.5486   -0.3005   -9.2014 O.2       4 UNK        -0.5353 
     22 CA         23.6773   -1.1276   -7.9571 C.3       4 UNK         0.0277 
     23 CB         22.9498   -2.2337   -8.7375 C.3       4 UNK        -0.1981 
     24 N          23.4311   -1.2928   -6.5173 N.am      4 UNK        -0.4209 
     25 C          23.8870   -0.4729   -5.5576 C.2       3 UNK         0.4942 
     26 O          24.6196    0.4914   -5.7762 O.2       3 UNK        -0.5208 
     27 CA         23.5164   -0.8141   -4.1110 C.3       3 UNK         0.0250 
     28 CB         22.0929   -1.3871   -3.9541 C.3       3 UNK        -0.1990 
     29 N          24.5046   -1.7571   -3.5932 N.am      3 UNK        -0.4232 
     30 C          24.9639   -1.7907   -2.3367 C.2       2 UNK         0.4993 
     31 O          24.5554   -1.0471   -1.4413 O.2       2 UNK        -0.5286 
     32 CA         26.0163   -2.8777   -2.0258 C.3       2 UNK         0.0209 
     33 CB         26.9944   -3.1359   -3.1946 C.3       2 UNK        -0.1931 
     34 N          26.7665   -2.6304   -0.7891 N.am      2 UNK        -0.4546 
     35 C          27.5942   -1.6082   -0.5166 C.2       1 UNK         0.5154 
     36 O          27.8274   -0.6781   -1.2906 O.2       1 UNK        -0.5181 
     37 C          28.0938   -0.5734   -7.4047 C.2       5 UNK         0.5014 
     38 O          29.0068   -0.1369   -8.1088 O.2       5 UNK        -0.5248 
     39 N          27.5904    0.0784   -6.3462 N.am      6 UNK        -0.4434 
     40 CA         28.0377    1.3953   -5.8988 C.3       6 UNK         0.0363 
     41 CB         27.5914    1.6307   -4.4466 C.3       6 UNK        -0.1936 
     42 C          27.5343    2.5125   -6.8226 C.2       6 UNK         0.5081 
     43 O          28.2988    3.4258   -7.1298 O.2       6 UNK        -0.5248 
     44 N          26.2786    2.4036   -7.2813 N.am      7 UNK        -0.4718 
     45 CA         25.6565    3.3274   -8.2360 C.3       7 UNK         0.0273 
     46 CB         24.1612    3.0007   -8.3717 C.3       7 UNK        -0.1935 
     47 C          26.3456    3.3214   -9.6124 C.2       7 UNK         0.5018 
     48 O          26.5507    4.3886  -10.1915 O.2       7 UNK        -0.5186 
     49 N          26.7204    2.1275  -10.0925 N.am      8 UNK        -0.4240 
     50 CA         27.5029    1.9233  -11.3148 C.3       8 UNK         0.0235 
     51 CB         27.3518    0.4600  -11.7640 C.3       8 UNK        -0.2000 
     52 C          28.9951    2.2705  -11.1563 C.2       8 UNK         0.4941 
     53 O          29.6831    2.3932  -12.1705 O.2       8 UNK        -0.5273 
     54 N          29.4690    2.3938   -9.9063 N.am      9 UNK        -0.4262 
     55 CA         30.8622    2.5888   -9.4901 C.3       9 UNK         0.0264 
     56 CB         31.3837    3.9740   -9.9268 C.3       9 UNK        -0.1955 
     57 C          31.7709    1.4258   -9.9347 C.2       9 UNK         0.5031 
     58 O          32.8870    1.6520  -10.4056 O.2       9 UNK        -0.5390 
     59 N          31.2736    0.1942   -9.7629 N.am      10 UNK        -0.4204 
     60 CA         31.9571   -1.0579  -10.1043 C.3       10 UNK         0.0237 
     61 CB         30.9095   -2.0496  -10.6421 C.3       10 UNK        -0.1985 
     62 C          32.7488   -1.6403   -8.9142 C.2       10 UNK         0.4970 
     63 O          33.1310   -2.8107   -8.9524 O.2       10 UNK        -0.4914 
     64 N          32.9583   -0.8195   -7.8792 N.am      11 UNK        -0.4285 
     65 CA         33.6123   -1.1259   -6.6021 C.3       11 UNK         0.1007 
     66 C          35.0595   -1.6687   -6.7502 C.2       11 UNK         0.5703 
     67 N          35.4628   -2.6015   -5.8978 N.am      11 UNK        -0.7361 
     68 O          35.8313   -1.2186   -7.5955 O.2       11 UNK        -0.4986 
     69 C69        33.5885    0.1114   -5.6604 C.3       12 UNK        -0.0947 
     70 S70        31.9620    0.9451   -5.5868 S.3       12 UNK        -0.2240 
     71 C71        31.3420    0.4715   -3.9386 C.3       12 UNK         0.0194 
     72 H72        24.9460   -3.5108    3.1632 H         1 UNK         0.0906 
     73 H73        25.9230   -2.8411    4.4723 H         1 UNK         0.0906 
     74 H74        26.5635   -4.1456    3.4718 H         1 UNK         0.0906 
     75 H75        28.0724   -3.4095    1.9749 H         1 UNK         0.3140 
     76 H76        28.2490   -0.6140    1.2382 H         1 UNK         0.1085 
     77 H77        30.2893   -1.2894    0.0486 H         1 UNK         0.0836 
     78 H78        30.2979   -1.8508    1.6875 H         1 UNK         0.0836 
     79 H79        32.3391   -2.8940   -0.3384 H         1 UNK         0.0731 
     80 H80        32.0802   -4.4928   -0.9797 H         1 UNK         0.0731 
     81 H81        31.7795   -0.9219   -1.6760 H         1 UNK         0.1312 
     82 H82        30.5123   -1.4543   -5.7249 H         1 UNK         0.1406 
     83 H83        30.7856   -4.8368   -3.0919 H         1 UNK         0.1631 
     84 H84        29.4667   -4.9277   -5.3038 H         1 UNK         0.0717 
     85 H85        31.1251   -4.8716   -5.8459 H         1 UNK         0.0717 
     86 H86        27.4106   -3.9735   -6.9765 H         1 UNK         0.0934 
     87 H87        27.9507   -2.8001   -5.8066 H         1 UNK         0.0934 
     88 H88        27.6844   -2.1551   -8.7896 H         1 UNK         0.0739 
     89 H89        25.5614   -2.5299   -6.9873 H         1 UNK         0.3093 
     90 H90        23.2438   -0.1695   -8.2491 H         1 UNK         0.0818 
     91 H91        23.1050   -2.1193   -9.8115 H         1 UNK         0.0819 
     92 H92        23.3041   -3.2276   -8.4613 H         1 UNK         0.0819 
     93 H93        21.8739   -2.2001   -8.5643 H         1 UNK         0.0819 
     94 H94        22.8286   -2.0572   -6.2475 H         1 UNK         0.3041 
     95 H95        23.5724    0.1212   -3.5490 H         1 UNK         0.0784 
     96 H96        21.3537   -0.7411   -4.4299 H         1 UNK         0.0793 
     97 H97        21.9948   -2.3830   -4.3871 H         1 UNK         0.0793 
     98 H98        21.8206   -1.4623   -2.9010 H         1 UNK         0.0793 
     99 H99        24.8908   -2.4077   -4.2607 H         1 UNK         0.3024 
    100 H100       25.4536   -3.7968   -1.8537 H         1 UNK         0.1171 
    101 H101       26.4850   -3.5680   -4.0556 H         1 UNK         0.0786 
    102 H102       27.7739   -3.8420   -2.9066 H         1 UNK         0.0786 
    103 H103       27.4896   -2.2183   -3.5162 H         1 UNK         0.0786 
    104 H104       26.6330   -3.3093   -0.0537 H         1 UNK         0.2977 
    105 H105       26.7772   -0.2961   -5.8786 H         1 UNK         0.3127 
    106 H106       29.1275    1.4111   -5.9261 H         1 UNK         0.0770 
    107 H107       27.9393    0.8344   -3.7878 H         1 UNK         0.0814 
    108 H108       27.9970    2.5684   -4.0651 H         1 UNK         0.0814 
    109 H109       26.5065    1.6860   -4.3550 H         1 UNK         0.0814 
    110 H110       25.7031    1.6419   -6.9322 H         1 UNK         0.2983 
    111 H111       25.7493    4.3353   -7.8255 H         1 UNK         0.0947 
    112 H112       24.0026    2.0165   -8.8119 H         1 UNK         0.0806 
    113 H113       23.6615    3.7276   -9.0133 H         1 UNK         0.0806 
    114 H114       23.6593    3.0209   -7.4041 H         1 UNK         0.0806 
    115 H115       26.4335    1.2871   -9.5927 H         1 UNK         0.3000 
    116 H116       27.0967    2.5681  -12.0971 H         1 UNK         0.0850 
    117 H117       27.8888    0.2768  -12.6957 H         1 UNK         0.0810 
    118 H118       26.3064    0.2036  -11.9365 H         1 UNK         0.0810 
    119 H119       27.7468   -0.2311  -11.0177 H         1 UNK         0.0810 
    120 H120       28.8104    2.2726   -9.1478 H         1 UNK         0.3040 
    121 H121       30.8558    2.5692   -8.3989 H         1 UNK         0.0766 
    122 H122       31.4674    4.0538  -11.0110 H         1 UNK         0.0812 
    123 H123       32.3729    4.1670   -9.5099 H         1 UNK         0.0812 
    124 H124       30.7253    4.7707   -9.5806 H         1 UNK         0.0812 
    125 H125       30.3758    0.0987   -9.2855 H         1 UNK         0.3205 
    126 H126       32.6798   -0.8720  -10.9013 H         1 UNK         0.0754 
    127 H127       31.3688   -2.9945  -10.9351 H         1 UNK         0.0769 
    128 H128       30.4051   -1.6501  -11.5221 H         1 UNK         0.0769 
    129 H129       30.1472   -2.2719   -9.8957 H         1 UNK         0.0769 
    130 H130       32.6052    0.1214   -7.9544 H         1 UNK         0.2981 
    131 H131       33.0191   -1.9180   -6.1458 H         1 UNK         0.0541 
    132 H132       36.4047   -2.9535   -5.9672 H         1 UNK         0.3459 
    133 H133       34.8432   -2.9643   -5.1903 H         1 UNK         0.3459 
    134 H134       34.3123    0.8564   -5.9963 H         1 UNK         0.0612 
    135 H135       33.8942   -0.1736   -4.6521 H         1 UNK         0.0612 
    136 H136       30.3836    0.9618   -3.7719 H         1 UNK         0.0624 
    137 H137       32.0273    0.8794   -3.1939 H         1 UNK         0.0624 
@<TRIPOS>BOND
     1    1    2 1    
     2    1   72 1    
     3    1   73 1    
     4    1   74 1    
     5    2    3 2    
     6    2    4 am   BACKBONE|DICT|INTERRES
     7    4    5 1    
     8    4   75 1    
     9    5    6 1    
    10    5   35 1    
    11    5   76 1    
    12    6    7 1    
    13    6   77 1    
    14    6   78 1    
    15    7    8 1    
    16    8    9 1    
    17    8   79 1    
    18    8   80 1    
    19    9   10 ar   
    20    9   14 ar   
    21   10   11 ar   
    22   10   81 1    
    23   11   12 ar   
    24   11   71 1    
    25   12   13 ar   
    26   12   82 1    
    27   13   14 ar   
    28   13   15 1    
    29   14   83 1    
    30   15   16 1    
    31   15   84 1    
    32   15   85 1    
    33   16   17 1    
    34   17   18 1    
    35   17   86 1    
    36   17   87 1    
    37   18   19 1    
    38   18   37 1    
    39   18   88 1    
    40   19   20 am   BACKBONE|DICT|INTERRES
    41   19   89 1    
    42   20   21 2    
    43   20   22 1    
    44   22   23 1    
    45   22   24 1    
    46   22   90 1    
    47   23   91 1    
    48   23   92 1    
    49   23   93 1    
    50   24   25 am   BACKBONE|DICT|INTERRES
    51   24   94 1    
    52   25   26 2    
    53   25   27 1    
    54   27   28 1    
    55   27   29 1    
    56   27   95 1    
    57   28   96 1    
    58   28   97 1    
    59   28   98 1    
    60   29   30 am   BACKBONE|DICT|INTERRES
    61   29   99 1    
    62   30   31 2    
    63   30   32 1    
    64   32   33 1    
    65   32   34 1    
    66   32  100 1    
    67   33  101 1    
    68   33  102 1    
    69   33  103 1    
    70   34   35 am   BACKBONE|DICT|INTERRES
    71   34  104 1    
    72   35   36 2    
    73   37   38 2    
    74   37   39 am   BACKBONE|DICT|INTERRES
    75   39   40 1    
    76   39  105 1    
    77   40   41 1    
    78   40   42 1    
    79   40  106 1    
    80   41  107 1    
    81   41  108 1    
    82   41  109 1    
    83   42   43 2    
    84   42   44 am   BACKBONE|DICT|INTERRES
    85   44   45 1    
    86   44  110 1    
    87   45   46 1    
    88   45   47 1    
    89   45  111 1    
    90   46  112 1    
    91   46  113 1    
    92   46  114 1    
    93   47   48 2    
    94   47   49 am   BACKBONE|DICT|INTERRES
    95   49   50 1    
    96   49  115 1    
    97   50   51 1    
    98   50   52 1    
    99   50  116 1    
   100   51  117 1    
   101   51  118 1    
   102   51  119 1    
   103   52   53 2    
   104   52   54 am   BACKBONE|DICT|INTERRES
   105   54   55 1    
   106   54  120 1    
   107   55   56 1    
   108   55   57 1    
   109   55  121 1    
   110   56  122 1    
   111   56  123 1    
   112   56  124 1    
   113   57   58 2    
   114   57   59 am   BACKBONE|DICT|INTERRES
   115   59   60 1    
   116   59  125 1    
   117   60   61 1    
   118   60   62 1    
   119   60  126 1    
   120   61  127 1    
   121   61  128 1    
   122   61  129 1    
   123   62   63 2    
   124   62   64 am   BACKBONE|DICT|INTERRES
   125   64   65 1    
   126   64  130 1    
   127   65   66 1    
   128   65   69 1    
   129   65  131 1    
   130   66   67 am   BACKBONE|DICT|INTERRES
   131   66   68 2    
   132   67  132 1    
   133   67  133 1    
   134   69   70 1    
   135   69  134 1    
   136   69  135 1    
   137   70   71 1    
   138   71  136 1    
   139   71  137 1    
@<TRIPOS>SUBSTRUCTURE
     1 UNK         1 GROUP             0       ****    0 ROOT    
