@<TRIPOS>MOLECULE
3R137
137   139    1
SMALL
USER_CHARGES


@<TRIPOS>ATOM
      1 CA         32.2181    0.0628    0.9639 C.3       0 UNK        -0.2020 
      2 C          31.3514   -0.3732   -0.2081 C.2       0 UNK         0.4855 
      3 O          31.8736   -0.5889   -1.3016 O.2       0 UNK        -0.5197 
      4 N          30.0388   -0.5037    0.0181 N.am      1 UNK        -0.4892 
      5 CA         29.0411   -0.8633   -0.9931 C.3       1 UNK         0.0835 
      6 C6         28.4455   -2.2837   -0.7768 C.3       12 UNK        -0.0855 
      7 S7         29.6899   -3.6151   -0.8376 S.3       12 UNK        -0.2931 
      8 C8         28.9991   -4.7422   -2.1025 C.3       12 UNK         0.0378 
      9 C9         29.5347   -4.5783   -3.5283 C.ar      12 UNK        -0.0802 
     10 C10        30.7014   -3.8596   -3.8286 C.ar      12 UNK        -0.0944 
     11 C11        31.2283   -3.8653   -5.1242 C.ar      12 UNK        -0.0787 
     12 C12        30.5685   -4.5735   -6.1345 C.ar      12 UNK        -0.0862 
     13 C13        29.4014   -5.2908   -5.8552 C.ar      12 UNK        -0.0733 
     14 C14        28.8863   -5.2752   -4.5550 C.ar      12 UNK        -0.0832 
     15 C15        28.7689   -6.1848   -6.9193 C.3       12 UNK         0.0240 
     16 S16        28.1163   -5.2796   -8.3586 S.3       12 UNK        -0.2522 
     17 C17        26.6043   -4.5174   -7.6758 C.3       12 UNK        -0.0967 
     18 CA         26.3362   -3.0986   -8.2401 C.3       5 UNK         0.0660 
     19 N          25.0235   -2.5909   -7.8254 N.am      5 UNK        -0.4015 
     20 C          24.4690   -1.4469   -8.2555 C.2       4 UNK         0.4946 
     21 O          24.9717   -0.7140   -9.1069 O.2       4 UNK        -0.5353 
     22 CA         23.1494   -1.0188   -7.5882 C.3       4 UNK         0.0277 
     23 CB         21.9519   -1.6845   -8.2850 C.3       4 UNK        -0.1981 
     24 N          23.0899   -1.2791   -6.1435 N.am      4 UNK        -0.4209 
     25 C          23.9632   -0.8075   -5.2429 C.2       3 UNK         0.4942 
     26 O          24.9585   -0.1394   -5.5349 O.2       3 UNK        -0.5208 
     27 CA         23.7079   -1.1703   -3.7760 C.3       3 UNK         0.0250 
     28 CB         23.9976   -2.6614   -3.5154 C.3       3 UNK        -0.1990 
     29 N          24.5876   -0.3498   -2.9498 N.am      3 UNK        -0.4232 
     30 C          24.3925   -0.0102   -1.6729 C.2       2 UNK         0.4993 
     31 O          23.4124   -0.3546   -1.0103 O.2       2 UNK        -0.5286 
     32 CA         25.5349    0.7791   -1.0202 C.3       2 UNK         0.0209 
     33 CB         25.1901    1.3045    0.3879 C.3       2 UNK        -0.1931 
     34 N          26.6921   -0.1103   -0.9529 N.am      2 UNK        -0.4546 
     35 C          27.9769    0.2568   -1.0286 C.2       1 UNK         0.5154 
     36 O          28.3366    1.4313   -1.1293 O.2       1 UNK        -0.5181 
     37 C          27.4584   -2.1114   -7.8662 C.2       5 UNK         0.5014 
     38 O          28.2269   -1.6997   -8.7362 O.2       5 UNK        -0.5248 
     39 N          27.4952   -1.7257   -6.5839 N.am      6 UNK        -0.4434 
     40 CA         28.4640   -0.7860   -6.0276 C.3       6 UNK         0.0363 
     41 CB         28.2937   -0.7180   -4.5051 C.3       6 UNK        -0.1936 
     42 C          28.3691    0.6124   -6.6518 C.2       6 UNK         0.5081 
     43 O          29.4040    1.2212   -6.9144 O.2       6 UNK        -0.5248 
     44 N          27.1404    1.0805   -6.9064 N.am      7 UNK        -0.4718 
     45 CA         26.8560    2.3404   -7.5922 C.3       7 UNK         0.0273 
     46 CB         25.3522    2.6456   -7.5073 C.3       7 UNK        -0.1935 
     47 C          27.3361    2.3406   -9.0529 C.2       7 UNK         0.5018 
     48 O          27.9617    3.3126   -9.4766 O.2       7 UNK        -0.5186 
     49 N          27.0589    1.2521   -9.7866 N.am      8 UNK        -0.4240 
     50 CA         27.4765    1.0659  -11.1788 C.3       8 UNK         0.0235 
     51 CB         26.7478   -0.1448  -11.7839 C.3       8 UNK        -0.2000 
     52 C          28.9984    0.9153  -11.3334 C.2       8 UNK         0.4941 
     53 O          29.5777    1.5303  -12.2296 O.2       8 UNK        -0.5273 
     54 N          29.6181    0.1103  -10.4601 N.am      9 UNK        -0.4262 
     55 CA         31.0617   -0.1423  -10.4480 C.3       9 UNK         0.0264 
     56 CB         31.3223   -1.4793   -9.7376 C.3       9 UNK        -0.1955 
     57 C          31.8908    0.9909   -9.8118 C.2       9 UNK         0.5031 
     58 O          33.1101    0.9986   -9.9887 O.2       9 UNK        -0.5390 
     59 N          31.2315    1.9117   -9.0919 N.am      10 UNK        -0.4204 
     60 CA         31.7961    3.0272   -8.3213 C.3       10 UNK         0.0237 
     61 CB         32.4896    4.0528   -9.2439 C.3       10 UNK        -0.1985 
     62 C          32.6878    2.5403   -7.1614 C.2       10 UNK         0.4970 
     63 O          33.7975    3.0438   -6.9740 O.2       10 UNK        -0.4914 
     64 N          32.1805    1.5539   -6.4144 N.am      11 UNK        -0.4285 
     65 CA         32.8319    0.9542   -5.2421 C.3       11 UNK         0.1007 
     66 C          32.8140    1.9075   -4.0172 C.2       11 UNK         0.5703 
     67 N          33.8546    1.8802   -3.1952 N.am      11 UNK        -0.7361 
     68 O          31.8609    2.6518   -3.7927 O.2       11 UNK        -0.4986 
     69 C69        32.2111   -0.4228   -4.8902 C.3       12 UNK        -0.0947 
     70 S70        32.3783   -1.6048   -6.2685 S.3       12 UNK        -0.2240 
     71 C71        32.5657   -3.1968   -5.4148 C.3       12 UNK         0.0194 
     72 H72        32.7305    0.9942    0.7241 H         1 UNK         0.0906 
     73 H73        31.6331    0.2206    1.8698 H         1 UNK         0.0906 
     74 H74        32.9713   -0.6960    1.1746 H         1 UNK         0.0906 
     75 H75        29.6659   -0.2719    0.9284 H         1 UNK         0.3140 
     76 H76        29.5090   -0.8528   -1.9779 H         1 UNK         0.1085 
     77 H77        27.9445   -2.3479    0.1912 H         1 UNK         0.0836 
     78 H78        27.6886   -2.4916   -1.5347 H         1 UNK         0.0836 
     79 H79        27.9102   -4.6764   -2.1028 H         1 UNK         0.0731 
     80 H80        29.2315   -5.7597   -1.7853 H         1 UNK         0.0731 
     81 H81        31.2386   -3.3355   -3.0507 H         1 UNK         0.1312 
     82 H82        30.9883   -4.6026   -7.1309 H         1 UNK         0.1406 
     83 H83        28.0059   -5.8605   -4.3250 H         1 UNK         0.1631 
     84 H84        27.9708   -6.7960   -6.4948 H         1 UNK         0.0717 
     85 H85        29.5260   -6.8864   -7.2723 H         1 UNK         0.0717 
     86 H86        25.7699   -5.1769   -7.9202 H         1 UNK         0.0934 
     87 H87        26.6612   -4.4972   -6.5860 H         1 UNK         0.0934 
     88 H88        26.3168   -3.1673   -9.3302 H         1 UNK         0.0739 
     89 H89        24.5267   -3.1264   -7.1295 H         1 UNK         0.3093 
     90 H90        23.0589    0.0611   -7.7224 H         1 UNK         0.0818 
     91 H91        21.0059   -1.3000   -7.9031 H         1 UNK         0.0819 
     92 H92        21.9674   -1.4889   -9.3583 H         1 UNK         0.0819 
     93 H93        21.9538   -2.7669   -8.1512 H         1 UNK         0.0819 
     94 H94        22.3039   -1.8227   -5.8158 H         1 UNK         0.3041 
     95 H95        22.6664   -0.9422   -3.5394 H         1 UNK         0.0784 
     96 H96        23.3527   -3.3037   -4.1161 H         1 UNK         0.0793 
     97 H97        25.0309   -2.9191   -3.7518 H         1 UNK         0.0793 
     98 H98        23.8217   -2.9216   -2.4714 H         1 UNK         0.0793 
     99 H99        25.3757    0.0306   -3.4590 H         1 UNK         0.3024 
    100 H100       25.7565    1.6328   -1.6656 H         1 UNK         0.1171 
    101 H101       26.0073    1.8963    0.8004 H         1 UNK         0.0786 
    102 H102       24.3081    1.9455    0.3597 H         1 UNK         0.0786 
    103 H103       24.9825    0.4906    1.0836 H         1 UNK         0.0786 
    104 H104       26.4684   -1.0932   -0.8787 H         1 UNK         0.2977 
    105 H105       26.7867   -2.0687   -5.9545 H         1 UNK         0.3127 
    106 H106       29.4589   -1.1765   -6.2471 H         1 UNK         0.0770 
    107 H107       27.2750   -0.4592   -4.2213 H         1 UNK         0.0814 
    108 H108       28.9474    0.0422   -4.0766 H         1 UNK         0.0814 
    109 H109       28.5435   -1.6731   -4.0430 H         1 UNK         0.0814 
    110 H110       26.3400    0.5332   -6.5968 H         1 UNK         0.2983 
    111 H111       27.3950    3.1319   -7.0669 H         1 UNK         0.0947 
    112 H112       25.1205    3.6014   -7.9790 H         1 UNK         0.0806 
    113 H113       25.0178    2.7041   -6.4712 H         1 UNK         0.0806 
    114 H114       24.7563    1.8813   -8.0067 H         1 UNK         0.0806 
    115 H115       26.5052    0.5059   -9.3731 H         1 UNK         0.3000 
    116 H116       27.1753    1.9545  -11.7378 H         1 UNK         0.0850 
    117 H117       27.0417   -0.3010  -12.8227 H         1 UNK         0.0810 
    118 H118       25.6670   -0.0026  -11.7701 H         1 UNK         0.0810 
    119 H119       26.9690   -1.0631  -11.2381 H         1 UNK         0.0810 
    120 H120       29.0596   -0.4077   -9.7819 H         1 UNK         0.3040 
    121 H121       31.4034   -0.2425  -11.4804 H         1 UNK         0.0766 
    122 H122       30.9169   -1.4747   -8.7264 H         1 UNK         0.0812 
    123 H123       32.3898   -1.6916   -9.6645 H         1 UNK         0.0812 
    124 H124       30.8603   -2.3087  -10.2732 H         1 UNK         0.0812 
    125 H125       30.2390    1.7640   -8.9563 H         1 UNK         0.3205 
    126 H126       30.9459    3.5297   -7.8571 H         1 UNK         0.0754 
    127 H127       32.7928    4.9377   -8.6831 H         1 UNK         0.0769 
    128 H128       31.8207    4.3856  -10.0376 H         1 UNK         0.0769 
    129 H129       33.3857    3.6420   -9.7099 H         1 UNK         0.0769 
    130 H130       31.2262    1.2559   -6.6016 H         1 UNK         0.2981 
    131 H131       33.8774    0.7853   -5.5087 H         1 UNK         0.0541 
    132 H132       34.6339    1.2627   -3.3601 H         1 UNK         0.3459 
    133 H133       33.8547    2.4823   -2.3874 H         1 UNK         0.3459 
    134 H134       31.1568   -0.3217   -4.6377 H         1 UNK         0.0612 
    135 H135       32.6982   -0.8393   -4.0070 H         1 UNK         0.0612 
    136 H136       33.1587   -3.8553   -6.0511 H         1 UNK         0.0624 
    137 H137       33.1462   -3.0676   -4.5003 H         1 UNK         0.0624 
@<TRIPOS>BOND
     1    1    2 1    
     2    1   72 1    
     3    1   73 1    
     4    1   74 1    
     5    2    3 2    
     6    2    4 am   BACKBONE|DICT|INTERRES
     7    4    5 1    
     8    4   75 1    
     9    5    6 1    
    10    5   35 1    
    11    5   76 1    
    12    6    7 1    
    13    6   77 1    
    14    6   78 1    
    15    7    8 1    
    16    8    9 1    
    17    8   79 1    
    18    8   80 1    
    19    9   10 ar   
    20    9   14 ar   
    21   10   11 ar   
    22   10   81 1    
    23   11   12 ar   
    24   11   71 1    
    25   12   13 ar   
    26   12   82 1    
    27   13   14 ar   
    28   13   15 1    
    29   14   83 1    
    30   15   16 1    
    31   15   84 1    
    32   15   85 1    
    33   16   17 1    
    34   17   18 1    
    35   17   86 1    
    36   17   87 1    
    37   18   19 1    
    38   18   37 1    
    39   18   88 1    
    40   19   20 am   BACKBONE|DICT|INTERRES
    41   19   89 1    
    42   20   21 2    
    43   20   22 1    
    44   22   23 1    
    45   22   24 1    
    46   22   90 1    
    47   23   91 1    
    48   23   92 1    
    49   23   93 1    
    50   24   25 am   BACKBONE|DICT|INTERRES
    51   24   94 1    
    52   25   26 2    
    53   25   27 1    
    54   27   28 1    
    55   27   29 1    
    56   27   95 1    
    57   28   96 1    
    58   28   97 1    
    59   28   98 1    
    60   29   30 am   BACKBONE|DICT|INTERRES
    61   29   99 1    
    62   30   31 2    
    63   30   32 1    
    64   32   33 1    
    65   32   34 1    
    66   32  100 1    
    67   33  101 1    
    68   33  102 1    
    69   33  103 1    
    70   34   35 am   BACKBONE|DICT|INTERRES
    71   34  104 1    
    72   35   36 2    
    73   37   38 2    
    74   37   39 am   BACKBONE|DICT|INTERRES
    75   39   40 1    
    76   39  105 1    
    77   40   41 1    
    78   40   42 1    
    79   40  106 1    
    80   41  107 1    
    81   41  108 1    
    82   41  109 1    
    83   42   43 2    
    84   42   44 am   BACKBONE|DICT|INTERRES
    85   44   45 1    
    86   44  110 1    
    87   45   46 1    
    88   45   47 1    
    89   45  111 1    
    90   46  112 1    
    91   46  113 1    
    92   46  114 1    
    93   47   48 2    
    94   47   49 am   BACKBONE|DICT|INTERRES
    95   49   50 1    
    96   49  115 1    
    97   50   51 1    
    98   50   52 1    
    99   50  116 1    
   100   51  117 1    
   101   51  118 1    
   102   51  119 1    
   103   52   53 2    
   104   52   54 am   BACKBONE|DICT|INTERRES
   105   54   55 1    
   106   54  120 1    
   107   55   56 1    
   108   55   57 1    
   109   55  121 1    
   110   56  122 1    
   111   56  123 1    
   112   56  124 1    
   113   57   58 2    
   114   57   59 am   BACKBONE|DICT|INTERRES
   115   59   60 1    
   116   59  125 1    
   117   60   61 1    
   118   60   62 1    
   119   60  126 1    
   120   61  127 1    
   121   61  128 1    
   122   61  129 1    
   123   62   63 2    
   124   62   64 am   BACKBONE|DICT|INTERRES
   125   64   65 1    
   126   64  130 1    
   127   65   66 1    
   128   65   69 1    
   129   65  131 1    
   130   66   67 am   BACKBONE|DICT|INTERRES
   131   66   68 2    
   132   67  132 1    
   133   67  133 1    
   134   69   70 1    
   135   69  134 1    
   136   69  135 1    
   137   70   71 1    
   138   71  136 1    
   139   71  137 1    
@<TRIPOS>SUBSTRUCTURE
     1 UNK         1 GROUP             0       ****    0 ROOT    
