@<TRIPOS>MOLECULE
3R137
137   139    1
SMALL
USER_CHARGES


@<TRIPOS>ATOM
      1 CA         30.6789   -6.2643   -4.5172 C.3       0 UNK        -0.2020 
      2 C          29.5337   -6.4454   -3.5318 C.2       0 UNK         0.4855 
      3 O          29.6804   -7.1652   -2.5439 O.2       0 UNK        -0.5197 
      4 N          28.3978   -5.7954   -3.7935 N.am      1 UNK        -0.4892 
      5 CA         27.1827   -5.8021   -2.9814 C.3       1 UNK         0.0835 
      6 C6         27.3479   -5.0535   -1.6256 C.3       12 UNK        -0.0855 
      7 S7         27.7632   -3.2806   -1.7966 S.3       12 UNK        -0.2931 
      8 C8         29.4784   -3.2620   -1.1902 C.3       12 UNK         0.0378 
      9 C9         30.1727   -1.9422   -1.4954 C.ar      12 UNK        -0.0802 
     10 C10        31.3435   -1.9243   -2.2610 C.ar      12 UNK        -0.0944 
     11 C11        32.0017   -0.7208   -2.5320 C.ar      12 UNK        -0.0787 
     12 C12        31.4872    0.4689   -2.0064 C.ar      12 UNK        -0.0862 
     13 C13        30.3021    0.4706   -1.2645 C.ar      12 UNK        -0.0733 
     14 C14        29.6552   -0.7398   -1.0032 C.ar      12 UNK        -0.0832 
     15 C15        29.7260    1.7758   -0.7330 C.3       12 UNK         0.0240 
     16 S16        28.4305    2.4494   -1.8259 S.3       12 UNK        -0.2522 
     17 C17        29.4082    2.9906   -3.2755 C.3       12 UNK        -0.0967 
     18 CA         28.9055    2.4379   -4.6347 C.3       5 UNK         0.0660 
     19 N          28.5448    1.0177   -4.5796 N.am      5 UNK        -0.4015 
     20 C          28.4698    0.2032   -5.6402 C.2       4 UNK         0.4946 
     21 O          28.8054    0.5319   -6.7778 O.2       4 UNK        -0.5353 
     22 CA         27.8982   -1.2079   -5.4142 C.3       4 UNK         0.0277 
     23 CB         29.0272   -2.2234   -5.1931 C.3       4 UNK        -0.1981 
     24 N          26.9258   -1.3152   -4.3231 N.am      4 UNK        -0.4209 
     25 C          25.7743   -0.6347   -4.2510 C.2       3 UNK         0.4942 
     26 O          25.4476    0.2312   -5.0646 O.2       3 UNK        -0.5208 
     27 CA         24.8524   -0.9898   -3.0707 C.3       3 UNK         0.0250 
     28 CB         23.6164   -0.0707   -2.9705 C.3       3 UNK        -0.1990 
     29 N          24.4619   -2.4054   -3.0931 N.am      3 UNK        -0.4232 
     30 C          23.7791   -3.0556   -4.0515 C.2       2 UNK         0.4993 
     31 O          23.2992   -2.5159   -5.0498 O.2       2 UNK        -0.5286 
     32 CA         23.6137   -4.5784   -3.8476 C.3       2 UNK         0.0209 
     33 CB         23.1415   -5.3116   -5.1227 C.3       2 UNK        -0.1931 
     34 N          24.8202   -5.2140   -3.2934 N.am      2 UNK        -0.4546 
     35 C          26.0447   -5.2220   -3.8439 C.2       1 UNK         0.5154 
     36 O          26.3036   -4.7613   -4.9606 O.2       1 UNK        -0.5181 
     37 C          27.7864    3.3268   -5.2180 C.2       5 UNK         0.5014 
     38 O          28.1062    4.3664   -5.7954 O.2       5 UNK        -0.5248 
     39 N          26.5131    2.9227   -5.0852 N.am      6 UNK        -0.4434 
     40 CA         25.3724    3.6150   -5.6946 C.3       6 UNK         0.0363 
     41 CB         24.0770    3.2829   -4.9365 C.3       6 UNK        -0.1936 
     42 C          25.2476    3.2612   -7.1843 C.2       6 UNK         0.5081 
     43 O          24.9251    4.1350   -7.9892 O.2       6 UNK        -0.5248 
     44 N          25.5537    2.0011   -7.5308 N.am      7 UNK        -0.4718 
     45 CA         25.7342    1.5417   -8.9127 C.3       7 UNK         0.0273 
     46 CB         25.8073    0.0068   -8.9315 C.3       7 UNK        -0.1935 
     47 C          26.9855    2.1474   -9.5781 C.2       7 UNK         0.5018 
     48 O          27.0087    2.3046  -10.7995 O.2       7 UNK        -0.5186 
     49 N          27.9986    2.4637   -8.7588 N.am      8 UNK        -0.4240 
     50 CA         29.2939    3.0861   -9.0493 C.3       8 UNK         0.0235 
     51 CB         29.1345    4.4678   -9.7119 C.3       8 UNK        -0.2000 
     52 C          30.2446    2.1797   -9.8408 C.2       8 UNK         0.4941 
     53 O          31.3666    1.9467   -9.3919 O.2       8 UNK        -0.5273 
     54 N          29.7780    1.6600  -10.9825 N.am      9 UNK        -0.4262 
     55 CA         30.5268    0.7771  -11.8813 C.3       9 UNK         0.0264 
     56 CB         29.7279    0.5895  -13.1811 C.3       9 UNK        -0.1955 
     57 C          30.8793   -0.5884  -11.2642 C.2       9 UNK         0.5031 
     58 O          31.8609   -1.2011  -11.6862 O.2       9 UNK        -0.5390 
     59 N          30.0794   -1.0405  -10.2885 N.am      10 UNK        -0.4204 
     60 CA         30.3034   -2.2775   -9.5414 C.3       10 UNK         0.0237 
     61 CB         29.0022   -2.6961   -8.8411 C.3       10 UNK        -0.1985 
     62 C          31.4651   -2.1557   -8.5407 C.2       10 UNK         0.4970 
     63 O          32.2782   -3.0767   -8.4569 O.2       10 UNK        -0.4914 
     64 N          31.5276   -1.0341   -7.8087 N.am      11 UNK        -0.4285 
     65 CA         32.6375   -0.7125   -6.8997 C.3       11 UNK         0.1007 
     66 C          33.9009   -0.2269   -7.6668 C.2       11 UNK         0.5703 
     67 N          33.7646    0.6212   -8.6787 N.am      11 UNK        -0.7361 
     68 O          35.0142   -0.6459   -7.3585 O.2       11 UNK        -0.4986 
     69 C69        32.1748    0.2619   -5.7831 C.3       12 UNK        -0.0947 
     70 S70        33.4440    0.6578   -4.5314 S.3       12 UNK        -0.2240 
     71 C71        33.2877   -0.7316   -3.3556 C.3       12 UNK         0.0194 
     72 H72        30.9569   -7.2244   -4.9511 H         1 UNK         0.0906 
     73 H73        30.4151   -5.5874   -5.3299 H         1 UNK         0.0906 
     74 H74        31.5504   -5.8551   -4.0068 H         1 UNK         0.0906 
     75 H75        28.2828   -5.2587   -4.6458 H         1 UNK         0.3140 
     76 H76        26.9258   -6.8442   -2.7787 H         1 UNK         0.1085 
     77 H77        28.1103   -5.5484   -1.0226 H         1 UNK         0.0836 
     78 H78        26.4359   -5.1303   -1.0319 H         1 UNK         0.0836 
     79 H79        30.0246   -4.0924   -1.6400 H         1 UNK         0.0731 
     80 H80        29.4830   -3.4326   -0.1128 H         1 UNK         0.0731 
     81 H81        31.7458   -2.8515   -2.6459 H         1 UNK         0.1312 
     82 H82        32.0101    1.3980   -2.1833 H         1 UNK         0.1406 
     83 H83        28.7451   -0.7479   -0.4183 H         1 UNK         0.1631 
     84 H84        30.5136    2.5192   -0.5998 H         1 UNK         0.0717 
     85 H85        29.2977    1.6096    0.2566 H         1 UNK         0.0717 
     86 H86        29.4421    4.0823   -3.2793 H         1 UNK         0.0934 
     87 H87        30.4465    2.6935   -3.1464 H         1 UNK         0.0934 
     88 H88        29.7400    2.5247   -5.3346 H         1 UNK         0.0739 
     89 H89        28.2851    0.6646   -3.6695 H         1 UNK         0.3093 
     90 H90        27.3658   -1.4852   -6.3247 H         1 UNK         0.0818 
     91 H91        28.6453   -3.2428   -5.1893 H         1 UNK         0.0819 
     92 H92        29.5349   -2.0508   -4.2475 H         1 UNK         0.0819 
     93 H93        29.7790   -2.1642   -5.9783 H         1 UNK         0.0819 
     94 H94        27.1227   -2.0091   -3.6121 H         1 UNK         0.3041 
     95 H95        25.4409   -0.8445   -2.1632 H         1 UNK         0.0784 
     96 H96        23.9174    0.9685   -2.8344 H         1 UNK         0.0793 
     97 H97        23.0002   -0.1150   -3.8691 H         1 UNK         0.0793 
     98 H98        22.9896   -0.3397   -2.1205 H         1 UNK         0.0793 
     99 H99        24.8205   -2.9604   -2.3286 H         1 UNK         0.3024 
    100 H100       22.8289   -4.6929   -3.0977 H         1 UNK         0.1171 
    101 H101       23.0211   -6.3801   -4.9449 H         1 UNK         0.0786 
    102 H102       22.1763   -4.9298   -5.4580 H         1 UNK         0.0786 
    103 H103       23.8432   -5.1852   -5.9477 H         1 UNK         0.0786 
    104 H104       24.7071   -5.6272   -2.3775 H         1 UNK         0.2977 
    105 H105       26.3162    2.0178   -4.6728 H         1 UNK         0.3127 
    106 H106       25.5350    4.6925   -5.6173 H         1 UNK         0.0770 
    107 H107       23.7941    2.2363   -5.0466 H         1 UNK         0.0814 
    108 H108       23.2466    3.8800   -5.3153 H         1 UNK         0.0814 
    109 H109       24.1717    3.4976   -3.8721 H         1 UNK         0.0814 
    110 H110       25.7218    1.3284   -6.7891 H         1 UNK         0.2983 
    111 H111       24.8647    1.8560   -9.4943 H         1 UNK         0.0947 
    112 H112       25.8939   -0.3677   -9.9524 H         1 UNK         0.0806 
    113 H113       24.9124   -0.4391   -8.4968 H         1 UNK         0.0806 
    114 H114       26.6683   -0.3619   -8.3748 H         1 UNK         0.0806 
    115 H115       27.9041    2.1495   -7.8006 H         1 UNK         0.3000 
    116 H116       29.7593    3.2466   -8.0752 H         1 UNK         0.0850 
    117 H117       30.1038    4.9521   -9.8362 H         1 UNK         0.0810 
    118 H118       28.5186    5.1270   -9.0998 H         1 UNK         0.0810 
    119 H119       28.6763    4.4027  -10.6990 H         1 UNK         0.0810 
    120 H120       28.8210    1.8912  -11.2392 H         1 UNK         0.3040 
    121 H121       31.4679    1.2746  -12.1249 H         1 UNK         0.0766 
    122 H122       30.2682   -0.0461  -13.8842 H         1 UNK         0.0812 
    123 H123       29.5510    1.5430  -13.6792 H         1 UNK         0.0812 
    124 H124       28.7596    0.1227  -12.9959 H         1 UNK         0.0812 
    125 H125       29.2970   -0.4668  -10.0116 H         1 UNK         0.3205 
    126 H126       30.5662   -3.0637  -10.2529 H         1 UNK         0.0754 
    127 H127       28.6258   -1.9038   -8.1975 H         1 UNK         0.0769 
    128 H128       29.1524   -3.5826   -8.2232 H         1 UNK         0.0769 
    129 H129       28.2228   -2.9342   -9.5652 H         1 UNK         0.0769 
    130 H130       30.8277   -0.3157   -7.9340 H         1 UNK         0.2981 
    131 H131       32.9209   -1.6389   -6.3961 H         1 UNK         0.0541 
    132 H132       32.8557    1.0101   -8.9223 H         1 UNK         0.3459 
    133 H133       34.5844    0.9218   -9.1797 H         1 UNK         0.3459 
    134 H134       31.3133   -0.1558   -5.2633 H         1 UNK         0.0612 
    135 H135       31.8337    1.2002   -6.2241 H         1 UNK         0.0612 
    136 H136       34.1333   -0.6958   -2.6680 H         1 UNK         0.0624 
    137 H137       33.3816   -1.6662   -3.9106 H         1 UNK         0.0624 
@<TRIPOS>BOND
     1    1    2 1    
     2    1   72 1    
     3    1   73 1    
     4    1   74 1    
     5    2    3 2    
     6    2    4 am   BACKBONE|DICT|INTERRES
     7    4    5 1    
     8    4   75 1    
     9    5    6 1    
    10    5   35 1    
    11    5   76 1    
    12    6    7 1    
    13    6   77 1    
    14    6   78 1    
    15    7    8 1    
    16    8    9 1    
    17    8   79 1    
    18    8   80 1    
    19    9   10 ar   
    20    9   14 ar   
    21   10   11 ar   
    22   10   81 1    
    23   11   12 ar   
    24   11   71 1    
    25   12   13 ar   
    26   12   82 1    
    27   13   14 ar   
    28   13   15 1    
    29   14   83 1    
    30   15   16 1    
    31   15   84 1    
    32   15   85 1    
    33   16   17 1    
    34   17   18 1    
    35   17   86 1    
    36   17   87 1    
    37   18   19 1    
    38   18   37 1    
    39   18   88 1    
    40   19   20 am   BACKBONE|DICT|INTERRES
    41   19   89 1    
    42   20   21 2    
    43   20   22 1    
    44   22   23 1    
    45   22   24 1    
    46   22   90 1    
    47   23   91 1    
    48   23   92 1    
    49   23   93 1    
    50   24   25 am   BACKBONE|DICT|INTERRES
    51   24   94 1    
    52   25   26 2    
    53   25   27 1    
    54   27   28 1    
    55   27   29 1    
    56   27   95 1    
    57   28   96 1    
    58   28   97 1    
    59   28   98 1    
    60   29   30 am   BACKBONE|DICT|INTERRES
    61   29   99 1    
    62   30   31 2    
    63   30   32 1    
    64   32   33 1    
    65   32   34 1    
    66   32  100 1    
    67   33  101 1    
    68   33  102 1    
    69   33  103 1    
    70   34   35 am   BACKBONE|DICT|INTERRES
    71   34  104 1    
    72   35   36 2    
    73   37   38 2    
    74   37   39 am   BACKBONE|DICT|INTERRES
    75   39   40 1    
    76   39  105 1    
    77   40   41 1    
    78   40   42 1    
    79   40  106 1    
    80   41  107 1    
    81   41  108 1    
    82   41  109 1    
    83   42   43 2    
    84   42   44 am   BACKBONE|DICT|INTERRES
    85   44   45 1    
    86   44  110 1    
    87   45   46 1    
    88   45   47 1    
    89   45  111 1    
    90   46  112 1    
    91   46  113 1    
    92   46  114 1    
    93   47   48 2    
    94   47   49 am   BACKBONE|DICT|INTERRES
    95   49   50 1    
    96   49  115 1    
    97   50   51 1    
    98   50   52 1    
    99   50  116 1    
   100   51  117 1    
   101   51  118 1    
   102   51  119 1    
   103   52   53 2    
   104   52   54 am   BACKBONE|DICT|INTERRES
   105   54   55 1    
   106   54  120 1    
   107   55   56 1    
   108   55   57 1    
   109   55  121 1    
   110   56  122 1    
   111   56  123 1    
   112   56  124 1    
   113   57   58 2    
   114   57   59 am   BACKBONE|DICT|INTERRES
   115   59   60 1    
   116   59  125 1    
   117   60   61 1    
   118   60   62 1    
   119   60  126 1    
   120   61  127 1    
   121   61  128 1    
   122   61  129 1    
   123   62   63 2    
   124   62   64 am   BACKBONE|DICT|INTERRES
   125   64   65 1    
   126   64  130 1    
   127   65   66 1    
   128   65   69 1    
   129   65  131 1    
   130   66   67 am   BACKBONE|DICT|INTERRES
   131   66   68 2    
   132   67  132 1    
   133   67  133 1    
   134   69   70 1    
   135   69  134 1    
   136   69  135 1    
   137   70   71 1    
   138   71  136 1    
   139   71  137 1    
@<TRIPOS>SUBSTRUCTURE
     1 UNK         1 GROUP             0       ****    0 ROOT    
