@<TRIPOS>MOLECULE
3R137
137   139    1
SMALL
USER_CHARGES


@<TRIPOS>ATOM
      1 CA         27.5183   -6.0012   -6.5965 C.3       0 UNK        -0.2020 
      2 C          27.2775   -5.4197   -5.2124 C.2       0 UNK         0.4855 
      3 O          26.1251   -5.2372   -4.8187 O.2       0 UNK        -0.5197 
      4 N          28.3539   -5.1253   -4.4701 N.am      1 UNK        -0.4892 
      5 CA         28.3053   -4.5816   -3.1090 C.3       1 UNK         0.0835 
      6 C6         29.7085   -4.5582   -2.4577 C.3       12 UNK        -0.0855 
      7 S7         29.6132   -4.3116   -0.6499 S.3       12 UNK        -0.2931 
      8 C8         31.2536   -3.6228   -0.2616 C.3       12 UNK         0.0378 
      9 C9         31.5440   -2.3107   -0.9813 C.ar      12 UNK        -0.0802 
     10 C10        32.6350   -2.2249   -1.8506 C.ar      12 UNK        -0.0944 
     11 C11        32.9469   -1.0192   -2.4829 C.ar      12 UNK        -0.0787 
     12 C12        32.1588    0.1088   -2.2399 C.ar      12 UNK        -0.0862 
     13 C13        31.0548    0.0377   -1.3832 C.ar      12 UNK        -0.0733 
     14 C14        30.7548   -1.1770   -0.7545 C.ar      12 UNK        -0.0832 
     15 C15        30.2146    1.2796   -1.0960 C.3       12 UNK         0.0240 
     16 S16        29.6909    2.1729   -2.5997 S.3       12 UNK        -0.2522 
     17 C17        28.4945    0.9999   -3.3099 C.3       12 UNK        -0.0967 
     18 CA         28.2497    1.2337   -4.8221 C.3       5 UNK         0.0660 
     19 N          27.8133    0.0049   -5.4889 N.am      5 UNK        -0.4015 
     20 C          27.5861   -0.1315   -6.8023 C.2       4 UNK         0.4946 
     21 O          27.7673    0.7572   -7.6319 O.2       4 UNK        -0.5353 
     22 CA         27.0105   -1.4756   -7.2668 C.3       4 UNK         0.0277 
     23 CB         28.1250   -2.5187   -7.4281 C.3       4 UNK        -0.1981 
     24 N          25.9728   -1.9708   -6.3595 N.am      4 UNK        -0.4209 
     25 C          24.7768   -1.3844   -6.1997 C.2       3 UNK         0.4942 
     26 O          24.3956   -0.4132   -6.8523 O.2       3 UNK        -0.5208 
     27 CA         23.8769   -1.9430   -5.0864 C.3       3 UNK         0.0250 
     28 CB         23.1568   -3.2190   -5.5501 C.3       3 UNK        -0.1990 
     29 N          24.6208   -2.2086   -3.8526 N.am      3 UNK        -0.4232 
     30 C          25.1892   -1.2559   -3.0982 C.2       2 UNK         0.4993 
     31 O          25.1120   -0.0528   -3.3423 O.2       2 UNK        -0.5286 
     32 CA         26.0264   -1.7152   -1.8935 C.3       2 UNK         0.0209 
     33 CB         25.1459   -1.8387   -0.6405 C.3       2 UNK        -0.1931 
     34 N          26.7464   -2.9722   -2.1121 N.am      2 UNK        -0.4546 
     35 C          27.6443   -3.1886   -3.0834 C.2       1 UNK         0.5154 
     36 O          27.9521   -2.3502   -3.9341 O.2       1 UNK        -0.5181 
     37 C          27.2774    2.4064   -5.0802 C.2       5 UNK         0.5014 
     38 O          27.7155    3.4726   -5.5147 O.2       5 UNK        -0.5248 
     39 N          25.9730    2.1723   -4.8657 N.am      6 UNK        -0.4434 
     40 CA         24.8925    3.1284   -5.1286 C.3       6 UNK         0.0363 
     41 CB         23.5689    2.5677   -4.5852 C.3       6 UNK        -0.1936 
     42 C          24.7473    3.5001   -6.6149 C.2       6 UNK         0.5081 
     43 O          24.4577    4.6567   -6.9215 O.2       6 UNK        -0.5248 
     44 N          24.9695    2.5286   -7.5105 N.am      7 UNK        -0.4718 
     45 CA         24.9709    2.7191   -8.9648 C.3       7 UNK         0.0273 
     46 CB         24.7825    1.3522   -9.6443 C.3       7 UNK        -0.1935 
     47 C          26.2394    3.4112   -9.5028 C.2       7 UNK         0.5018 
     48 O          26.2573    3.7771  -10.6789 O.2       7 UNK        -0.5186 
     49 N          27.2723    3.5541   -8.6575 N.am      8 UNK        -0.4240 
     50 CA         28.6244    4.0355   -8.9653 C.3       8 UNK         0.0235 
     51 CB         28.6087    5.5153   -9.4050 C.3       8 UNK        -0.2000 
     52 C          29.3762    3.1133   -9.9478 C.2       8 UNK         0.4941 
     53 O          30.1581    3.5935  -10.7717 O.2       8 UNK        -0.5273 
     54 N          29.1307    1.8028   -9.8336 N.am      9 UNK        -0.4262 
     55 CA         29.8314    0.7398  -10.5492 C.3       9 UNK         0.0264 
     56 CB         28.8359   -0.4003  -10.8256 C.3       9 UNK        -0.1955 
     57 C          31.0309    0.2502   -9.7201 C.2       9 UNK         0.5031 
     58 O          31.1725    0.6172   -8.5500 O.2       9 UNK        -0.5390 
     59 N          31.8775   -0.5844  -10.3361 N.am      10 UNK        -0.4204 
     60 CA         33.1377   -1.0999   -9.7848 C.3       10 UNK         0.0237 
     61 CB         34.0182   -1.5915  -10.9505 C.3       10 UNK        -0.1985 
     62 C          32.9744   -2.1646   -8.6741 C.2       10 UNK         0.4970 
     63 O          33.6390   -3.2018   -8.7234 O.2       10 UNK        -0.4914 
     64 N          32.1279   -1.8708   -7.6797 N.am      11 UNK        -0.4285 
     65 CA         31.9160   -2.6375   -6.4392 C.3       11 UNK         0.1007 
     66 C          31.3928   -4.0892   -6.6803 C.2       11 UNK         0.5703 
     67 N          31.5485   -5.0012   -5.7270 N.am      11 UNK        -0.7361 
     68 O          30.7937   -4.3933   -7.7093 O.2       11 UNK        -0.4986 
     69 C69        33.1551   -2.5641   -5.4954 C.3       12 UNK        -0.0947 
     70 S70        33.6816   -0.8470   -5.1556 S.3       12 UNK        -0.2240 
     71 C71        34.1558   -0.9234   -3.4015 C.3       12 UNK         0.0194 
     72 H72        26.8277   -5.5629   -7.3163 H         1 UNK         0.0906 
     73 H73        28.5337   -5.8143   -6.9450 H         1 UNK         0.0906 
     74 H74        27.3530   -7.0780   -6.5829 H         1 UNK         0.0906 
     75 H75        29.2772   -5.2502   -4.8600 H         1 UNK         0.3140 
     76 H76        27.6779   -5.2664   -2.5334 H         1 UNK         0.1085 
     77 H77        30.2198   -5.5067   -2.6297 H         1 UNK         0.0836 
     78 H78        30.3308   -3.7892   -2.9193 H         1 UNK         0.0836 
     79 H79        32.0105   -4.3729   -0.4969 H         1 UNK         0.0731 
     80 H80        31.3171   -3.4549    0.8144 H         1 UNK         0.0731 
     81 H81        33.2538   -3.0948   -2.0244 H         1 UNK         0.1312 
     82 H82        32.4071    1.0455   -2.7203 H         1 UNK         0.1406 
     83 H83        29.9142   -1.2431   -0.0768 H         1 UNK         0.1631 
     84 H84        30.8029    1.9580   -0.4769 H         1 UNK         0.0717 
     85 H85        29.3275    1.0241   -0.5142 H         1 UNK         0.0717 
     86 H86        28.8961   -0.0024   -3.1539 H         1 UNK         0.0934 
     87 H87        27.5668    1.0460   -2.7377 H         1 UNK         0.0934 
     88 H88        29.2031    1.4946   -5.2875 H         1 UNK         0.0739 
     89 H89        27.6996   -0.8156   -4.8966 H         1 UNK         0.3093 
     90 H90        26.5541   -1.3159   -8.2458 H         1 UNK         0.0818 
     91 H91        27.7622   -3.4060   -7.9446 H         1 UNK         0.0819 
     92 H92        28.9546   -2.1258   -8.0170 H         1 UNK         0.0819 
     93 H93        28.5355   -2.8283   -6.4678 H         1 UNK         0.0819 
     94 H94        26.2196   -2.7371   -5.7483 H         1 UNK         0.3041 
     95 H95        23.1198   -1.1876   -4.8643 H         1 UNK         0.0784 
     96 H96        22.5786   -3.0316   -6.4560 H         1 UNK         0.0793 
     97 H97        23.8576   -4.0246   -5.7722 H         1 UNK         0.0793 
     98 H98        22.4613   -3.5793   -4.7920 H         1 UNK         0.0793 
     99 H99        24.7617   -3.1769   -3.5987 H         1 UNK         0.3024 
    100 H100       26.7750   -0.9439   -1.7052 H         1 UNK         0.1171 
    101 H101       24.6157   -0.9057   -0.4431 H         1 UNK         0.0786 
    102 H102       25.7428   -2.0621    0.2441 H         1 UNK         0.0786 
    103 H103       24.3959   -2.6234   -0.7480 H         1 UNK         0.0786 
    104 H104       26.5676   -3.7119   -1.4478 H         1 UNK         0.2977 
    105 H105       25.6928    1.2789   -4.4622 H         1 UNK         0.3127 
    106 H106       25.1248    4.0449   -4.5824 H         1 UNK         0.0770 
    107 H107       23.3043    1.6251   -5.0665 H         1 UNK         0.0814 
    108 H108       22.7479    3.2653   -4.7560 H         1 UNK         0.0814 
    109 H109       23.6252    2.3893   -3.5113 H         1 UNK         0.0814 
    110 H110       25.1476    1.5872   -7.1766 H         1 UNK         0.2983 
    111 H111       24.1215    3.3521   -9.2306 H         1 UNK         0.0947 
    112 H112       24.7263    1.4564  -10.7286 H         1 UNK         0.0806 
    113 H113       23.8612    0.8695   -9.3177 H         1 UNK         0.0806 
    114 H114       25.6104    0.6777   -9.4246 H         1 UNK         0.0806 
    115 H115       27.1527    3.1897   -7.7194 H         1 UNK         0.3000 
    116 H116       29.1771    3.9795   -8.0261 H         1 UNK         0.0850 
    117 H117       29.6227    5.9091   -9.4832 H         1 UNK         0.0810 
    118 H118       28.0752    6.1365   -8.6856 H         1 UNK         0.0810 
    119 H119       28.1357    5.6454  -10.3786 H         1 UNK         0.0810 
    120 H120       28.5477    1.4934   -9.0549 H         1 UNK         0.3040 
    121 H121       30.2044    1.1195  -11.5028 H         1 UNK         0.0766 
    122 H122       27.9939   -0.0488  -11.4223 H         1 UNK         0.0812 
    123 H123       28.4335   -0.8167   -9.9036 H         1 UNK         0.0812 
    124 H124       29.3024   -1.2164  -11.3780 H         1 UNK         0.0812 
    125 H125       31.6641   -0.8664  -11.2822 H         1 UNK         0.3205 
    126 H126       33.6594   -0.2606   -9.3195 H         1 UNK         0.0754 
    127 H127       35.0012   -1.9054  -10.5965 H         1 UNK         0.0769 
    128 H128       34.1825   -0.8031  -11.6855 H         1 UNK         0.0769 
    129 H129       33.5685   -2.4426  -11.4637 H         1 UNK         0.0769 
    130 H130       31.6420   -0.9796   -7.7434 H         1 UNK         0.2981 
    131 H131       31.0926   -2.1322   -5.9330 H         1 UNK         0.0541 
    132 H132       32.0653   -4.7913   -4.8886 H         1 UNK         0.3459 
    133 H133       31.2591   -5.9478   -5.9145 H         1 UNK         0.3459 
    134 H134       34.0006   -3.1024   -5.9266 H         1 UNK         0.0612 
    135 H135       32.9357   -3.0498   -4.5453 H         1 UNK         0.0612 
    136 H136       34.8345   -1.7636   -3.2468 H         1 UNK         0.0624 
    137 H137       34.7227   -0.0247   -3.1543 H         1 UNK         0.0624 
@<TRIPOS>BOND
     1    1    2 1    
     2    1   72 1    
     3    1   73 1    
     4    1   74 1    
     5    2    3 2    
     6    2    4 am   BACKBONE|DICT|INTERRES
     7    4    5 1    
     8    4   75 1    
     9    5    6 1    
    10    5   35 1    
    11    5   76 1    
    12    6    7 1    
    13    6   77 1    
    14    6   78 1    
    15    7    8 1    
    16    8    9 1    
    17    8   79 1    
    18    8   80 1    
    19    9   10 ar   
    20    9   14 ar   
    21   10   11 ar   
    22   10   81 1    
    23   11   12 ar   
    24   11   71 1    
    25   12   13 ar   
    26   12   82 1    
    27   13   14 ar   
    28   13   15 1    
    29   14   83 1    
    30   15   16 1    
    31   15   84 1    
    32   15   85 1    
    33   16   17 1    
    34   17   18 1    
    35   17   86 1    
    36   17   87 1    
    37   18   19 1    
    38   18   37 1    
    39   18   88 1    
    40   19   20 am   BACKBONE|DICT|INTERRES
    41   19   89 1    
    42   20   21 2    
    43   20   22 1    
    44   22   23 1    
    45   22   24 1    
    46   22   90 1    
    47   23   91 1    
    48   23   92 1    
    49   23   93 1    
    50   24   25 am   BACKBONE|DICT|INTERRES
    51   24   94 1    
    52   25   26 2    
    53   25   27 1    
    54   27   28 1    
    55   27   29 1    
    56   27   95 1    
    57   28   96 1    
    58   28   97 1    
    59   28   98 1    
    60   29   30 am   BACKBONE|DICT|INTERRES
    61   29   99 1    
    62   30   31 2    
    63   30   32 1    
    64   32   33 1    
    65   32   34 1    
    66   32  100 1    
    67   33  101 1    
    68   33  102 1    
    69   33  103 1    
    70   34   35 am   BACKBONE|DICT|INTERRES
    71   34  104 1    
    72   35   36 2    
    73   37   38 2    
    74   37   39 am   BACKBONE|DICT|INTERRES
    75   39   40 1    
    76   39  105 1    
    77   40   41 1    
    78   40   42 1    
    79   40  106 1    
    80   41  107 1    
    81   41  108 1    
    82   41  109 1    
    83   42   43 2    
    84   42   44 am   BACKBONE|DICT|INTERRES
    85   44   45 1    
    86   44  110 1    
    87   45   46 1    
    88   45   47 1    
    89   45  111 1    
    90   46  112 1    
    91   46  113 1    
    92   46  114 1    
    93   47   48 2    
    94   47   49 am   BACKBONE|DICT|INTERRES
    95   49   50 1    
    96   49  115 1    
    97   50   51 1    
    98   50   52 1    
    99   50  116 1    
   100   51  117 1    
   101   51  118 1    
   102   51  119 1    
   103   52   53 2    
   104   52   54 am   BACKBONE|DICT|INTERRES
   105   54   55 1    
   106   54  120 1    
   107   55   56 1    
   108   55   57 1    
   109   55  121 1    
   110   56  122 1    
   111   56  123 1    
   112   56  124 1    
   113   57   58 2    
   114   57   59 am   BACKBONE|DICT|INTERRES
   115   59   60 1    
   116   59  125 1    
   117   60   61 1    
   118   60   62 1    
   119   60  126 1    
   120   61  127 1    
   121   61  128 1    
   122   61  129 1    
   123   62   63 2    
   124   62   64 am   BACKBONE|DICT|INTERRES
   125   64   65 1    
   126   64  130 1    
   127   65   66 1    
   128   65   69 1    
   129   65  131 1    
   130   66   67 am   BACKBONE|DICT|INTERRES
   131   66   68 2    
   132   67  132 1    
   133   67  133 1    
   134   69   70 1    
   135   69  134 1    
   136   69  135 1    
   137   70   71 1    
   138   71  136 1    
   139   71  137 1    
@<TRIPOS>SUBSTRUCTURE
     1 UNK         1 GROUP             0       ****    0 ROOT    
