@<TRIPOS>MOLECULE
3R137
137   139    1
SMALL
USER_CHARGES


@<TRIPOS>ATOM
      1 CA         25.7774   -4.8036   -2.0045 C.3       0 UNK        -0.2020 
      2 C          26.6921   -3.9787   -1.1131 C.2       0 UNK         0.4855 
      3 O          26.2889   -3.5800   -0.0206 O.2       0 UNK        -0.5197 
      4 N          27.9198   -3.7103   -1.5762 N.am      1 UNK        -0.4892 
      5 CA         28.9464   -2.9386   -0.8524 C.3       1 UNK         0.0835 
      6 C6         30.3824   -3.4212   -1.1839 C.3       12 UNK        -0.0855 
      7 S7         30.5797   -5.2165   -0.8793 S.3       12 UNK        -0.2931 
      8 C8         31.8854   -5.7080   -2.0580 C.3       12 UNK         0.0378 
      9 C9         31.6243   -5.2474   -3.4877 C.ar      12 UNK        -0.0802 
     10 C10        32.6156   -4.5438   -4.1772 C.ar      12 UNK        -0.0944 
     11 C11        32.3839   -4.0685   -5.4705 C.ar      12 UNK        -0.0787 
     12 C12        31.1487   -4.3089   -6.0791 C.ar      12 UNK        -0.0862 
     13 C13        30.1390   -4.9884   -5.3904 C.ar      12 UNK        -0.0733 
     14 C14        30.3930   -5.4844   -4.1083 C.ar      12 UNK        -0.0832 
     15 C15        28.7557   -5.1331   -6.0087 C.3       12 UNK         0.0240 
     16 S16        27.5161   -4.1029   -5.1503 S.3       12 UNK        -0.2522 
     17 C17        28.1692   -2.4128   -5.3792 C.3       12 UNK        -0.0967 
     18 CA         27.4530   -1.6408   -6.5083 C.3       5 UNK         0.0660 
     19 N          26.0155   -1.4949   -6.2597 N.am      5 UNK        -0.4015 
     20 C          25.1182   -1.1940   -7.2087 C.2       4 UNK         0.4946 
     21 O          25.4105   -1.0238   -8.3909 O.2       4 UNK        -0.5353 
     22 CA         23.6583   -0.9965   -6.7645 C.3       4 UNK         0.0277 
     23 CB         22.9204   -2.3439   -6.7286 C.3       4 UNK        -0.1981 
     24 N          23.5337   -0.3334   -5.4643 N.am      4 UNK        -0.4209 
     25 C          24.0098    0.8863   -5.1791 C.2       3 UNK         0.4942 
     26 O          24.5616    1.6109   -6.0065 O.2       3 UNK        -0.5208 
     27 CA         23.9161    1.3624   -3.7188 C.3       3 UNK         0.0250 
     28 CB         22.8323    0.6309   -2.8939 C.3       3 UNK        -0.1990 
     29 N          25.2143    1.2918   -3.0322 N.am      3 UNK        -0.4232 
     30 C          25.9897    0.2066   -2.8835 C.2       2 UNK         0.4993 
     31 O          25.7402   -0.8888   -3.4004 O.2       2 UNK        -0.5286 
     32 CA         27.2464    0.3533   -2.0069 C.3       2 UNK         0.0209 
     33 CB         26.9642    1.1484   -0.7115 C.3       2 UNK        -0.1931 
     34 N          27.6921   -1.0015   -1.7002 N.am      2 UNK        -0.4546 
     35 C          28.7893   -1.4116   -1.0557 C.2       1 UNK         0.5154 
     36 O          29.6524   -0.6459   -0.6245 O.2       1 UNK        -0.5181 
     37 C          28.1326   -0.2771   -6.7549 C.2       5 UNK         0.5014 
     38 O          29.0972   -0.2087   -7.5214 O.2       5 UNK        -0.5248 
     39 N          27.6065    0.7901   -6.1340 N.am      6 UNK        -0.4434 
     40 CA         28.0422    2.1659   -6.3710 C.3       6 UNK         0.0363 
     41 CB         27.5425    3.0989   -5.2569 C.3       6 UNK        -0.1936 
     42 C          27.5986    2.6523   -7.7579 C.2       6 UNK         0.5081 
     43 O          28.4131    3.2106   -8.4907 O.2       6 UNK        -0.5248 
     44 N          26.3397    2.3745   -8.1220 N.am      7 UNK        -0.4718 
     45 CA         25.7876    2.6371   -9.4530 C.3       7 UNK         0.0273 
     46 CB         24.2838    2.3198   -9.4562 C.3       7 UNK        -0.1935 
     47 C          26.5136    1.8634  -10.5689 C.2       7 UNK         0.5018 
     48 O          26.7380    2.4259  -11.6414 O.2       7 UNK        -0.5186 
     49 N          26.8736    0.6013  -10.2945 N.am      8 UNK        -0.4240 
     50 CA         27.6018   -0.2697  -11.2144 C.3       8 UNK         0.0235 
     51 CB         27.5198   -1.7292  -10.7369 C.3       8 UNK        -0.2000 
     52 C          29.0667    0.1435  -11.4244 C.2       8 UNK         0.4941 
     53 O          29.4874    0.2499  -12.5779 O.2       8 UNK        -0.5273 
     54 N          29.8295    0.3163  -10.3330 N.am      9 UNK        -0.4262 
     55 CA         31.2938    0.4023  -10.3984 C.3       9 UNK         0.0264 
     56 CB         31.8775   -1.0239  -10.3210 C.3       9 UNK        -0.1955 
     57 C          31.9303    1.3449   -9.3622 C.2       9 UNK         0.5031 
     58 O          33.1455    1.2711   -9.1726 O.2       9 UNK        -0.5390 
     59 N          31.1397    2.2185   -8.7183 N.am      10 UNK        -0.4204 
     60 CA         31.5645    3.1944   -7.6981 C.3       10 UNK         0.0237 
     61 CB         32.5073    4.2569   -8.3050 C.3       10 UNK        -0.1985 
     62 C          32.1323    2.5636   -6.4080 C.2       10 UNK         0.4970 
     63 O          32.8503    3.2403   -5.6693 O.2       10 UNK        -0.4914 
     64 N          31.8000    1.2930   -6.1498 N.am      11 UNK        -0.4285 
     65 CA         32.2222    0.5429   -4.9603 C.3       11 UNK         0.1007 
     66 C          31.4614    0.9839   -3.6799 C.2       11 UNK         0.5703 
     67 N          32.0322    0.7405   -2.5085 N.am      11 UNK        -0.7361 
     68 O          30.3443    1.4941   -3.7344 O.2       11 UNK        -0.4986 
     69 C69        32.0762   -0.9840   -5.1692 C.3       12 UNK        -0.0947 
     70 S70        32.8828   -1.6018   -6.6867 S.3       12 UNK        -0.2240 
     71 C71        33.4590   -3.2579   -6.1849 C.3       12 UNK         0.0194 
     72 H72        26.3462   -5.4519   -2.6707 H         1 UNK         0.0906 
     73 H73        25.1256   -5.4350   -1.4011 H         1 UNK         0.0906 
     74 H74        25.1535   -4.1474   -2.6113 H         1 UNK         0.0906 
     75 H75        28.1942   -4.0543   -2.4863 H         1 UNK         0.3140 
     76 H76        28.7999   -3.1020    0.2178 H         1 UNK         0.1085 
     77 H77        30.6239   -3.1783   -2.2193 H         1 UNK         0.0836 
     78 H78        31.1176   -2.8962   -0.5711 H         1 UNK         0.0836 
     79 H79        32.8366   -5.3162   -1.6942 H         1 UNK         0.0731 
     80 H80        31.9777   -6.7948   -2.0490 H         1 UNK         0.0731 
     81 H81        33.5650   -4.3470   -3.6979 H         1 UNK         0.1312 
     82 H82        30.9593   -3.9189   -7.0700 H         1 UNK         0.1406 
     83 H83        29.6146   -6.0115   -3.5734 H         1 UNK         0.1631 
     84 H84        28.4450   -6.1776   -5.9595 H         1 UNK         0.0717 
     85 H85        28.7701   -4.8653   -7.0664 H         1 UNK         0.0717 
     86 H86        29.2338   -2.4708   -5.5899 H         1 UNK         0.0934 
     87 H87        28.0829   -1.8804   -4.4312 H         1 UNK         0.0934 
     88 H88        27.5729   -2.2216   -7.4249 H         1 UNK         0.0739 
     89 H89        25.7142   -1.5732   -5.2927 H         1 UNK         0.3093 
     90 H90        23.1729   -0.3591   -7.5064 H         1 UNK         0.0818 
     91 H91        21.8623   -2.2118   -6.5018 H         1 UNK         0.0819 
     92 H92        22.9824   -2.8471   -7.6947 H         1 UNK         0.0819 
     93 H93        23.3437   -3.0180   -5.9826 H         1 UNK         0.0819 
     94 H94        23.1311   -0.8728   -4.7117 H         1 UNK         0.3041 
     95 H95        23.6404    2.4173   -3.7624 H         1 UNK         0.0784 
     96 H96        21.8602    0.6799   -3.3867 H         1 UNK         0.0793 
     97 H97        23.0706   -0.4205   -2.7288 H         1 UNK         0.0793 
     98 H98        22.7143    1.0935   -1.9140 H         1 UNK         0.0793 
     99 H99        25.5157    2.1523   -2.5970 H         1 UNK         0.3024 
    100 H100       28.0215    0.8521   -2.5912 H         1 UNK         0.1171 
    101 H101       27.8427    1.1997   -0.0689 H         1 UNK         0.0786 
    102 H102       26.1569    0.6978   -0.1325 H         1 UNK         0.0786 
    103 H103       26.6825    2.1794   -0.9258 H         1 UNK         0.0786 
    104 H104       27.0559   -1.7087   -2.0515 H         1 UNK         0.2977 
    105 H105       26.7704    0.6661   -5.5821 H         1 UNK         0.3127 
    106 H106       29.1311    2.1786   -6.3404 H         1 UNK         0.0770 
    107 H107       26.4557    3.1615   -5.2227 H         1 UNK         0.0814 
    108 H108       27.9179    4.1117   -5.4083 H         1 UNK         0.0814 
    109 H109       27.8940    2.7709   -4.2791 H         1 UNK         0.0814 
    110 H110       25.7130    1.9599   -7.4350 H         1 UNK         0.2983 
    111 H111       25.9132    3.7027   -9.6571 H         1 UNK         0.0947 
    112 H112       23.8388    2.5491  -10.4253 H         1 UNK         0.0806 
    113 H113       23.7528    2.9074   -8.7069 H         1 UNK         0.0806 
    114 H114       24.0932    1.2662   -9.2504 H         1 UNK         0.0806 
    115 H115       26.5556    0.1840   -9.4243 H         1 UNK         0.3000 
    116 H116       27.1035   -0.2130  -12.1849 H         1 UNK         0.0850 
    117 H117       28.0451   -2.3950  -11.4230 H         1 UNK         0.0810 
    118 H118       26.4861   -2.0714  -10.6837 H         1 UNK         0.0810 
    119 H119       27.9670   -1.8587   -9.7516 H         1 UNK         0.0810 
    120 H120       29.4249    0.1862   -9.4082 H         1 UNK         0.3040 
    121 H121       31.5883    0.8283  -11.3598 H         1 UNK         0.0766 
    122 H122       32.9673   -1.0180  -10.3625 H         1 UNK         0.0812 
    123 H123       31.5864   -1.5212   -9.3956 H         1 UNK         0.0812 
    124 H124       31.5319   -1.6392  -11.1517 H         1 UNK         0.0812 
    125 H125       30.1503    2.2513   -8.9459 H         1 UNK         0.3205 
    126 H126       30.6654    3.7233   -7.3843 H         1 UNK         0.0754 
    127 H127       32.6862    5.0705   -7.6011 H         1 UNK         0.0769 
    128 H128       32.0783    4.6993   -9.2041 H         1 UNK         0.0769 
    129 H129       33.4790    3.8374   -8.5670 H         1 UNK         0.0769 
    130 H130       31.1927    0.8014   -6.7906 H         1 UNK         0.2981 
    131 H131       33.2811    0.7563   -4.8015 H         1 UNK         0.0541 
    132 H132       32.9415    0.3116   -2.4450 H         1 UNK         0.3459 
    133 H133       31.5210    0.9618   -1.6677 H         1 UNK         0.3459 
    134 H134       31.0234   -1.2554   -5.2190 H         1 UNK         0.0612 
    135 H135       32.4903   -1.5150   -4.3104 H         1 UNK         0.0612 
    136 H136       33.7870   -3.8013   -7.0717 H         1 UNK         0.0624 
    137 H137       34.3394   -3.1379   -5.5519 H         1 UNK         0.0624 
@<TRIPOS>BOND
     1    1    2 1    
     2    1   72 1    
     3    1   73 1    
     4    1   74 1    
     5    2    3 2    
     6    2    4 am   BACKBONE|DICT|INTERRES
     7    4    5 1    
     8    4   75 1    
     9    5    6 1    
    10    5   35 1    
    11    5   76 1    
    12    6    7 1    
    13    6   77 1    
    14    6   78 1    
    15    7    8 1    
    16    8    9 1    
    17    8   79 1    
    18    8   80 1    
    19    9   10 ar   
    20    9   14 ar   
    21   10   11 ar   
    22   10   81 1    
    23   11   12 ar   
    24   11   71 1    
    25   12   13 ar   
    26   12   82 1    
    27   13   14 ar   
    28   13   15 1    
    29   14   83 1    
    30   15   16 1    
    31   15   84 1    
    32   15   85 1    
    33   16   17 1    
    34   17   18 1    
    35   17   86 1    
    36   17   87 1    
    37   18   19 1    
    38   18   37 1    
    39   18   88 1    
    40   19   20 am   BACKBONE|DICT|INTERRES
    41   19   89 1    
    42   20   21 2    
    43   20   22 1    
    44   22   23 1    
    45   22   24 1    
    46   22   90 1    
    47   23   91 1    
    48   23   92 1    
    49   23   93 1    
    50   24   25 am   BACKBONE|DICT|INTERRES
    51   24   94 1    
    52   25   26 2    
    53   25   27 1    
    54   27   28 1    
    55   27   29 1    
    56   27   95 1    
    57   28   96 1    
    58   28   97 1    
    59   28   98 1    
    60   29   30 am   BACKBONE|DICT|INTERRES
    61   29   99 1    
    62   30   31 2    
    63   30   32 1    
    64   32   33 1    
    65   32   34 1    
    66   32  100 1    
    67   33  101 1    
    68   33  102 1    
    69   33  103 1    
    70   34   35 am   BACKBONE|DICT|INTERRES
    71   34  104 1    
    72   35   36 2    
    73   37   38 2    
    74   37   39 am   BACKBONE|DICT|INTERRES
    75   39   40 1    
    76   39  105 1    
    77   40   41 1    
    78   40   42 1    
    79   40  106 1    
    80   41  107 1    
    81   41  108 1    
    82   41  109 1    
    83   42   43 2    
    84   42   44 am   BACKBONE|DICT|INTERRES
    85   44   45 1    
    86   44  110 1    
    87   45   46 1    
    88   45   47 1    
    89   45  111 1    
    90   46  112 1    
    91   46  113 1    
    92   46  114 1    
    93   47   48 2    
    94   47   49 am   BACKBONE|DICT|INTERRES
    95   49   50 1    
    96   49  115 1    
    97   50   51 1    
    98   50   52 1    
    99   50  116 1    
   100   51  117 1    
   101   51  118 1    
   102   51  119 1    
   103   52   53 2    
   104   52   54 am   BACKBONE|DICT|INTERRES
   105   54   55 1    
   106   54  120 1    
   107   55   56 1    
   108   55   57 1    
   109   55  121 1    
   110   56  122 1    
   111   56  123 1    
   112   56  124 1    
   113   57   58 2    
   114   57   59 am   BACKBONE|DICT|INTERRES
   115   59   60 1    
   116   59  125 1    
   117   60   61 1    
   118   60   62 1    
   119   60  126 1    
   120   61  127 1    
   121   61  128 1    
   122   61  129 1    
   123   62   63 2    
   124   62   64 am   BACKBONE|DICT|INTERRES
   125   64   65 1    
   126   64  130 1    
   127   65   66 1    
   128   65   69 1    
   129   65  131 1    
   130   66   67 am   BACKBONE|DICT|INTERRES
   131   66   68 2    
   132   67  132 1    
   133   67  133 1    
   134   69   70 1    
   135   69  134 1    
   136   69  135 1    
   137   70   71 1    
   138   71  136 1    
   139   71  137 1    
@<TRIPOS>SUBSTRUCTURE
     1 UNK         1 GROUP             0       ****    0 ROOT    
