@<TRIPOS>MOLECULE
3R137
137   139    1
SMALL
USER_CHARGES


@<TRIPOS>ATOM
      1 CA         24.3987   -5.9512   -4.7895 C.3       0 UNK        -0.2020 
      2 C          24.7820   -5.2158   -3.5150 C.2       0 UNK         0.4855 
      3 O          23.9057   -4.7089   -2.8135 O.2       0 UNK        -0.5197 
      4 N          26.0855   -5.1389   -3.2161 N.am      1 UNK        -0.4892 
      5 CA         26.6611   -4.4125   -2.0789 C.3       1 UNK         0.0835 
      6 C6         28.1884   -4.6578   -1.9413 C.3       12 UNK        -0.0855 
      7 S7         29.1476   -4.4706   -3.4919 S.3       12 UNK        -0.2931 
      8 C8         30.8300   -4.2038   -2.8481 C.3       12 UNK         0.0378 
      9 C9         31.2960   -2.7579   -2.9826 C.ar      12 UNK        -0.0802 
     10 C10        32.4325   -2.4617   -3.7434 C.ar      12 UNK        -0.0944 
     11 C11        32.9240   -1.1546   -3.8142 C.ar      12 UNK        -0.0787 
     12 C12        32.2591   -0.1347   -3.1269 C.ar      12 UNK        -0.0862 
     13 C13        31.1109   -0.4108   -2.3779 C.ar      12 UNK        -0.0733 
     14 C14        30.6351   -1.7250   -2.3078 C.ar      12 UNK        -0.0832 
     15 C15        30.4219    0.7066   -1.6052 C.3       12 UNK         0.0240 
     16 S16        29.5051    1.8480   -2.6902 S.3       12 UNK        -0.2522 
     17 C17        28.0210    0.8728   -3.1035 C.3       12 UNK        -0.0967 
     18 CA         27.6908    0.9043   -4.6165 C.3       5 UNK         0.0660 
     19 N          26.9774   -0.3078   -5.0364 N.am      5 UNK        -0.4015 
     20 C          26.6120   -0.6240   -6.2876 C.2       4 UNK         0.4946 
     21 O          26.8460    0.0807   -7.2676 O.2       4 UNK        -0.5353 
     22 CA         25.8132   -1.9207   -6.4730 C.3       4 UNK         0.0277 
     23 CB         26.7318   -3.1523   -6.4320 C.3       4 UNK        -0.1981 
     24 N          24.7714   -2.0319   -5.4526 N.am      4 UNK        -0.4209 
     25 C          23.5928   -1.3948   -5.5142 C.2       3 UNK         0.4942 
     26 O          23.2140   -0.7512   -6.4925 O.2       3 UNK        -0.5208 
     27 CA         22.6880   -1.4624   -4.2714 C.3       3 UNK         0.0250 
     28 CB         21.6573   -2.5939   -4.4111 C.3       3 UNK        -0.1990 
     29 N          23.4384   -1.6264   -3.0227 N.am      3 UNK        -0.4232 
     30 C          24.1985   -0.6656   -2.4742 C.2       2 UNK         0.4993 
     31 O          24.3310    0.4587   -2.9583 O.2       2 UNK        -0.5286 
     32 CA         24.9956   -1.0363   -1.2088 C.3       2 UNK         0.0209 
     33 CB         24.1446   -0.8075    0.0500 C.3       2 UNK        -0.1931 
     34 N          25.5080   -2.4123   -1.2134 N.am      2 UNK        -0.4546 
     35 C          26.3140   -2.9136   -2.1595 C.2       1 UNK         0.5154 
     36 O          26.7233   -2.2500   -3.1113 O.2       1 UNK        -0.5181 
     37 C          26.9525    2.2011   -5.0140 C.2       5 UNK         0.5014 
     38 O          27.6020    3.1708   -5.4063 O.2       5 UNK        -0.5248 
     39 N          25.6111    2.1765   -4.9931 N.am      6 UNK        -0.4434 
     40 CA         24.7364    3.2297   -5.5231 C.3       6 UNK         0.0363 
     41 CB         23.2735    2.8567   -5.2356 C.3       6 UNK        -0.1936 
     42 C          24.9285    3.5249   -7.0275 C.2       6 UNK         0.5081 
     43 O          24.6192    4.6344   -7.4620 O.2       6 UNK        -0.5248 
     44 N          25.4514    2.5519   -7.7857 N.am      7 UNK        -0.4718 
     45 CA         25.8420    2.6687   -9.1927 C.3       7 UNK         0.0273 
     46 CB         25.1684    1.5313   -9.9825 C.3       7 UNK        -0.1935 
     47 C          27.3773    2.6424   -9.3555 C.2       7 UNK         0.5018 
     48 O          27.8619    2.3692  -10.4542 O.2       7 UNK        -0.5186 
     49 N          28.1137    2.9136   -8.2656 N.am      8 UNK        -0.4240 
     50 CA         29.5761    2.9525   -8.1319 C.3       8 UNK         0.0235 
     51 CB         30.2025    3.9896   -9.0891 C.3       8 UNK        -0.2000 
     52 C          30.2795    1.5827   -8.2114 C.2       8 UNK         0.4941 
     53 O          31.5075    1.5605   -8.2949 O.2       8 UNK        -0.5273 
     54 N          29.5205    0.4751   -8.1821 N.am      9 UNK        -0.4262 
     55 CA         29.9144   -0.9442   -8.0905 C.3       9 UNK         0.0264 
     56 CB         30.3687   -1.2707   -6.6527 C.3       9 UNK        -0.1955 
     57 C          30.9129   -1.5050   -9.1298 C.2       9 UNK         0.5031 
     58 O          31.0836   -2.7244   -9.1737 O.2       9 UNK        -0.5390 
     59 N          31.5446   -0.6422   -9.9368 N.am      10 UNK        -0.4204 
     60 CA         32.6509   -0.9146  -10.8622 C.3       10 UNK         0.0237 
     61 CB         32.2192   -1.8610  -12.0037 C.3       10 UNK        -0.1985 
     62 C          33.9097   -1.3877  -10.1081 C.2       10 UNK         0.4970 
     63 O          34.5200   -2.3898  -10.4862 O.2       10 UNK        -0.4914 
     64 N          34.2486   -0.6597   -9.0348 N.am      11 UNK        -0.4285 
     65 CA         35.3851   -0.9133   -8.1356 C.3       11 UNK         0.1007 
     66 C          36.7583   -0.9304   -8.8628 C.2       11 UNK         0.5703 
     67 N          37.6696   -1.8011   -8.4501 N.am      11 UNK        -0.7361 
     68 O          37.0181   -0.1326   -9.7625 O.2       11 UNK        -0.4986 
     69 C69        35.4171    0.1029   -6.9622 C.3       12 UNK        -0.0947 
     70 S70        33.8410    0.1895   -6.0512 S.3       12 UNK        -0.2240 
     71 C71        34.1905   -0.8517   -4.6047 C.3       12 UNK         0.0194 
     72 H72        25.2654   -6.3901   -5.2834 H         1 UNK         0.0906 
     73 H73        23.6959   -6.7524   -4.5628 H         1 UNK         0.0906 
     74 H74        23.9204   -5.2655   -5.4885 H         1 UNK         0.0906 
     75 H75        26.7692   -5.5383   -3.8444 H         1 UNK         0.3140 
     76 H76        26.1889   -4.8120   -1.1787 H         1 UNK         0.1085 
     77 H77        28.6074   -4.0112   -1.1682 H         1 UNK         0.0836 
     78 H78        28.3523   -5.6759   -1.5847 H         1 UNK         0.0836 
     79 H79        31.5029   -4.8708   -3.3889 H         1 UNK         0.0731 
     80 H80        30.8907   -4.5067   -1.8020 H         1 UNK         0.0731 
     81 H81        32.9512   -3.2553   -4.2637 H         1 UNK         0.1312 
     82 H82        32.6374    0.8775   -3.1749 H         1 UNK         0.1406 
     83 H83        29.7578   -1.9491   -1.7176 H         1 UNK         0.1631 
     84 H84        29.7468    0.3023   -0.8491 H         1 UNK         0.0717 
     85 H85        31.1759    1.2769   -1.0608 H         1 UNK         0.0717 
     86 H86        28.2042   -0.1538   -2.7876 H         1 UNK         0.0934 
     87 H87        27.1798    1.2208   -2.5011 H         1 UNK         0.0934 
     88 H88        28.6309    0.8958   -5.1720 H         1 UNK         0.0739 
     89 H89        26.7955   -0.9915   -4.3011 H         1 UNK         0.3093 
     90 H90        25.3434   -1.8869   -7.4586 H         1 UNK         0.0818 
     91 H91        27.2640   -3.2364   -5.4851 H         1 UNK         0.0819 
     92 H92        27.4834   -3.1037   -7.2202 H         1 UNK         0.0819 
     93 H93        26.1678   -4.0724   -6.5824 H         1 UNK         0.0819 
     94 H94        25.0300   -2.4882   -4.5882 H         1 UNK         0.3041 
     95 H95        22.1443   -0.5167   -4.2136 H         1 UNK         0.0784 
     96 H96        22.1338   -3.5707   -4.4949 H         1 UNK         0.0793 
     97 H97        20.9805   -2.6226   -3.5571 H         1 UNK         0.0793 
     98 H98        21.0459   -2.4540   -5.3037 H         1 UNK         0.0793 
     99 H99        23.4261   -2.5472   -2.5979 H         1 UNK         0.3024 
    100 H100       25.8568   -0.3669   -1.1629 H         1 UNK         0.1171 
    101 H101       23.7678    0.2159    0.0851 H         1 UNK         0.0786 
    102 H102       23.2816   -1.4738    0.0821 H         1 UNK         0.0786 
    103 H103       24.7269   -0.9667    0.9578 H         1 UNK         0.0786 
    104 H104       25.1763   -3.0214   -0.4788 H         1 UNK         0.2977 
    105 H105       25.1504    1.3780   -4.5661 H         1 UNK         0.3127 
    106 H106       24.9691    4.1488   -4.9816 H         1 UNK         0.0770 
    107 H107       23.0978    2.7302   -4.1671 H         1 UNK         0.0814 
    108 H108       22.9903    1.9289   -5.7341 H         1 UNK         0.0814 
    109 H109       22.5946    3.6357   -5.5853 H         1 UNK         0.0814 
    110 H110       25.7094    1.6719   -7.3476 H         1 UNK         0.2983 
    111 H111       25.4987    3.6199   -9.6045 H         1 UNK         0.0947 
    112 H112       25.3750    1.6157  -11.0501 H         1 UNK         0.0806 
    113 H113       24.0853    1.5532   -9.8616 H         1 UNK         0.0806 
    114 H114       25.5214    0.5520   -9.6568 H         1 UNK         0.0806 
    115 H115       27.6173    3.0964   -7.3983 H         1 UNK         0.3000 
    116 H116       29.7601    3.3053   -7.1161 H         1 UNK         0.0850 
    117 H117       31.2575    4.1459   -8.8606 H         1 UNK         0.0810 
    118 H118       29.7092    4.9578   -9.0040 H         1 UNK         0.0810 
    119 H119       30.1431    3.6711  -10.1300 H         1 UNK         0.0810 
    120 H120       28.5155    0.6142   -8.1128 H         1 UNK         0.3040 
    121 H121       28.9956   -1.5028   -8.2707 H         1 UNK         0.0766 
    122 H122       29.5441   -1.2002   -5.9460 H         1 UNK         0.0812 
    123 H123       31.1471   -0.5917   -6.3124 H         1 UNK         0.0812 
    124 H124       30.7622   -2.2847   -6.5691 H         1 UNK         0.0812 
    125 H125       31.3982    0.3376   -9.7087 H         1 UNK         0.3205 
    126 H126       32.9112    0.0434  -11.3149 H         1 UNK         0.0754 
    127 H127       33.0078   -1.9514  -12.7516 H         1 UNK         0.0769 
    128 H128       31.3308   -1.4875  -12.5130 H         1 UNK         0.0769 
    129 H129       32.0011   -2.8662  -11.6422 H         1 UNK         0.0769 
    130 H130       33.6717    0.1315   -8.7848 H         1 UNK         0.2981 
    131 H131       35.2214   -1.9066   -7.7134 H         1 UNK         0.0541 
    132 H132       38.5719   -1.8149   -8.8995 H         1 UNK         0.3459 
    133 H133       37.4723   -2.4505   -7.7046 H         1 UNK         0.3459 
    134 H134       36.2191   -0.1403   -6.2626 H         1 UNK         0.0612 
    135 H135       35.6348    1.1054   -7.3356 H         1 UNK         0.0612 
    136 H136       34.6645   -1.7762   -4.9382 H         1 UNK         0.0624 
    137 H137       34.9108   -0.3450   -3.9610 H         1 UNK         0.0624 
@<TRIPOS>BOND
     1    1    2 1    
     2    1   72 1    
     3    1   73 1    
     4    1   74 1    
     5    2    3 2    
     6    2    4 am   BACKBONE|DICT|INTERRES
     7    4    5 1    
     8    4   75 1    
     9    5    6 1    
    10    5   35 1    
    11    5   76 1    
    12    6    7 1    
    13    6   77 1    
    14    6   78 1    
    15    7    8 1    
    16    8    9 1    
    17    8   79 1    
    18    8   80 1    
    19    9   10 ar   
    20    9   14 ar   
    21   10   11 ar   
    22   10   81 1    
    23   11   12 ar   
    24   11   71 1    
    25   12   13 ar   
    26   12   82 1    
    27   13   14 ar   
    28   13   15 1    
    29   14   83 1    
    30   15   16 1    
    31   15   84 1    
    32   15   85 1    
    33   16   17 1    
    34   17   18 1    
    35   17   86 1    
    36   17   87 1    
    37   18   19 1    
    38   18   37 1    
    39   18   88 1    
    40   19   20 am   BACKBONE|DICT|INTERRES
    41   19   89 1    
    42   20   21 2    
    43   20   22 1    
    44   22   23 1    
    45   22   24 1    
    46   22   90 1    
    47   23   91 1    
    48   23   92 1    
    49   23   93 1    
    50   24   25 am   BACKBONE|DICT|INTERRES
    51   24   94 1    
    52   25   26 2    
    53   25   27 1    
    54   27   28 1    
    55   27   29 1    
    56   27   95 1    
    57   28   96 1    
    58   28   97 1    
    59   28   98 1    
    60   29   30 am   BACKBONE|DICT|INTERRES
    61   29   99 1    
    62   30   31 2    
    63   30   32 1    
    64   32   33 1    
    65   32   34 1    
    66   32  100 1    
    67   33  101 1    
    68   33  102 1    
    69   33  103 1    
    70   34   35 am   BACKBONE|DICT|INTERRES
    71   34  104 1    
    72   35   36 2    
    73   37   38 2    
    74   37   39 am   BACKBONE|DICT|INTERRES
    75   39   40 1    
    76   39  105 1    
    77   40   41 1    
    78   40   42 1    
    79   40  106 1    
    80   41  107 1    
    81   41  108 1    
    82   41  109 1    
    83   42   43 2    
    84   42   44 am   BACKBONE|DICT|INTERRES
    85   44   45 1    
    86   44  110 1    
    87   45   46 1    
    88   45   47 1    
    89   45  111 1    
    90   46  112 1    
    91   46  113 1    
    92   46  114 1    
    93   47   48 2    
    94   47   49 am   BACKBONE|DICT|INTERRES
    95   49   50 1    
    96   49  115 1    
    97   50   51 1    
    98   50   52 1    
    99   50  116 1    
   100   51  117 1    
   101   51  118 1    
   102   51  119 1    
   103   52   53 2    
   104   52   54 am   BACKBONE|DICT|INTERRES
   105   54   55 1    
   106   54  120 1    
   107   55   56 1    
   108   55   57 1    
   109   55  121 1    
   110   56  122 1    
   111   56  123 1    
   112   56  124 1    
   113   57   58 2    
   114   57   59 am   BACKBONE|DICT|INTERRES
   115   59   60 1    
   116   59  125 1    
   117   60   61 1    
   118   60   62 1    
   119   60  126 1    
   120   61  127 1    
   121   61  128 1    
   122   61  129 1    
   123   62   63 2    
   124   62   64 am   BACKBONE|DICT|INTERRES
   125   64   65 1    
   126   64  130 1    
   127   65   66 1    
   128   65   69 1    
   129   65  131 1    
   130   66   67 am   BACKBONE|DICT|INTERRES
   131   66   68 2    
   132   67  132 1    
   133   67  133 1    
   134   69   70 1    
   135   69  134 1    
   136   69  135 1    
   137   70   71 1    
   138   71  136 1    
   139   71  137 1    
@<TRIPOS>SUBSTRUCTURE
     1 UNK         1 GROUP             0       ****    0 ROOT    
