@<TRIPOS>MOLECULE
3R137
137   139    1
SMALL
USER_CHARGES


@<TRIPOS>ATOM
      1 CA         23.5924   -6.0723   -2.9068 C.3       0 UNK        -0.2020 
      2 C          24.6008   -5.1401   -2.2519 C.2       0 UNK         0.4855 
      3 O          24.2017   -4.1720   -1.6037 O.2       0 UNK        -0.5197 
      4 N          25.8994   -5.4314   -2.4192 N.am      1 UNK        -0.4892 
      5 CA         27.0503   -4.6961   -1.8772 C.3       1 UNK         0.0835 
      6 C6         28.3746   -5.3831   -2.3066 C.3       12 UNK        -0.0855 
      7 S7         29.8865   -4.5646   -1.6840 S.3       12 UNK        -0.2931 
      8 C8         30.5251   -3.8323   -3.2255 C.3       12 UNK         0.0378 
      9 C9         31.3024   -2.5560   -2.9545 C.ar      12 UNK        -0.0802 
     10 C10        32.6978   -2.5751   -2.9025 C.ar      12 UNK        -0.0944 
     11 C11        33.4172   -1.3943   -2.6887 C.ar      12 UNK        -0.0787 
     12 C12        32.7214   -0.1943   -2.5072 C.ar      12 UNK        -0.0862 
     13 C13        31.3229   -0.1612   -2.5351 C.ar      12 UNK        -0.0733 
     14 C14        30.6205   -1.3509   -2.7634 C.ar      12 UNK        -0.0832 
     15 C15        30.6042    1.1593   -2.2548 C.3       12 UNK         0.0240 
     16 S16        29.0307    1.3870   -3.1493 S.3       12 UNK        -0.2522 
     17 C17        29.6160    1.5950   -4.8598 C.3       12 UNK        -0.0967 
     18 CA         28.5131    1.4352   -5.9334 C.3       5 UNK         0.0660 
     19 N          27.8388    0.1332   -5.8970 N.am      5 UNK        -0.4015 
     20 C          27.1831   -0.3791   -6.9480 C.2       4 UNK         0.4946 
     21 O          27.0865    0.1955   -8.0324 O.2       4 UNK        -0.5353 
     22 CA         26.4918   -1.7356   -6.7541 C.3       4 UNK         0.0277 
     23 CB         27.5191   -2.8777   -6.6731 C.3       4 UNK        -0.1981 
     24 N          25.6365   -1.7432   -5.5672 N.am      4 UNK        -0.4209 
     25 C          24.4691   -1.0853   -5.4770 C.2       3 UNK         0.4942 
     26 O          23.9873   -0.4270   -6.3976 O.2       3 UNK        -0.5208 
     27 CA         23.7070   -1.1505   -4.1384 C.3       3 UNK         0.0250 
     28 CB         22.6700   -2.2829   -4.1736 C.3       3 UNK        -0.1990 
     29 N          24.5742   -1.3209   -2.9707 N.am      3 UNK        -0.4232 
     30 C          25.5400   -0.4623   -2.6110 C.2       2 UNK         0.4993 
     31 O          25.7452    0.6070   -3.1844 O.2       2 UNK        -0.5286 
     32 CA         26.4752   -0.8910   -1.4654 C.3       2 UNK         0.0209 
     33 CB         26.0079   -0.2797   -0.1356 C.3       2 UNK        -0.1931 
     34 N          26.6276   -2.3425   -1.3074 N.am      2 UNK        -0.4546 
     35 C          26.9970   -3.2030   -2.2685 C.2       1 UNK         0.5154 
     36 O          27.2415   -2.8683   -3.4293 O.2       1 UNK        -0.5181 
     37 C          27.5156    2.6123   -5.9757 C.2       5 UNK         0.5014 
     38 O          27.8175    3.6192   -6.6172 O.2       5 UNK        -0.5248 
     39 N          26.3200    2.4546   -5.3829 N.am      6 UNK        -0.4434 
     40 CA         25.1949    3.3863   -5.5388 C.3       6 UNK         0.0363 
     41 CB         24.0577    2.9972   -4.5827 C.3       6 UNK        -0.1936 
     42 C          24.6725    3.4704   -6.9871 C.2       6 UNK         0.5081 
     43 O          24.2367    4.5411   -7.4095 O.2       6 UNK        -0.5248 
     44 N          24.7638    2.3606   -7.7335 N.am      7 UNK        -0.4718 
     45 CA         24.4775    2.2774   -9.1697 C.3       7 UNK         0.0273 
     46 CB         23.9775    0.8593   -9.4970 C.3       7 UNK        -0.1935 
     47 C          25.6868    2.6591  -10.0503 C.2       7 UNK         0.5018 
     48 O          25.5956    2.5350  -11.2724 O.2       7 UNK        -0.5186 
     49 N          26.7850    3.1159   -9.4286 N.am      8 UNK        -0.4240 
     50 CA         28.0473    3.5582  -10.0286 C.3       8 UNK         0.0235 
     51 CB         27.8317    4.7767  -10.9531 C.3       8 UNK        -0.2000 
     52 C          28.8660    2.4337  -10.6922 C.2       8 UNK         0.4941 
     53 O          29.6658    2.7220  -11.5857 O.2       8 UNK        -0.5273 
     54 N          28.6992    1.1836  -10.2358 N.am      9 UNK        -0.4262 
     55 CA         29.5784    0.0693  -10.5984 C.3       9 UNK         0.0264 
     56 CB         28.8399   -1.2615  -10.3847 C.3       9 UNK        -0.1955 
     57 C          30.8714    0.1150   -9.7648 C.2       9 UNK         0.5031 
     58 O          30.8875    0.6936   -8.6744 O.2       9 UNK        -0.5390 
     59 N          31.9331   -0.5063  -10.2904 N.am      10 UNK        -0.4204 
     60 CA         33.2382   -0.6092   -9.6345 C.3       10 UNK         0.0237 
     61 CB         34.2796   -1.0695  -10.6688 C.3       10 UNK        -0.1985 
     62 C          33.2163   -1.5712   -8.4333 C.2       10 UNK         0.4970 
     63 O          32.4159   -2.5095   -8.4085 O.2       10 UNK        -0.4914 
     64 N          34.1353   -1.3385   -7.4884 N.am      11 UNK        -0.4285 
     65 CA         34.4296   -2.2210   -6.3510 C.3       11 UNK         0.1007 
     66 C          34.9430   -3.6107   -6.8296 C.2       11 UNK         0.5703 
     67 N          34.3852   -4.6990   -6.3161 N.am      11 UNK        -0.7361 
     68 O          35.8603   -3.7023   -7.6440 O.2       11 UNK        -0.4986 
     69 C69        35.4307   -1.5212   -5.3916 C.3       12 UNK        -0.0947 
     70 S70        35.7581   -2.4423   -3.8492 S.3       12 UNK        -0.2240 
     71 C71        34.9404   -1.4057   -2.5911 C.3       12 UNK         0.0194 
     72 H72        22.9010   -5.5075   -3.5307 H         1 UNK         0.0906 
     73 H73        24.0750   -6.8230   -3.5323 H         1 UNK         0.0906 
     74 H74        23.0125   -6.5892   -2.1427 H         1 UNK         0.0906 
     75 H75        26.1381   -6.2343   -2.9839 H         1 UNK         0.3140 
     76 H76        26.9858   -4.7614   -0.7890 H         1 UNK         0.1085 
     77 H77        28.4230   -5.4680   -3.3940 H         1 UNK         0.0836 
     78 H78        28.3871   -6.4089   -1.9345 H         1 UNK         0.0836 
     79 H79        29.7085   -3.6037   -3.9107 H         1 UNK         0.0731 
     80 H80        31.1505   -4.5658   -3.7368 H         1 UNK         0.0731 
     81 H81        33.2239   -3.5115   -3.0266 H         1 UNK         0.1312 
     82 H82        33.2721    0.7171   -2.3170 H         1 UNK         0.1406 
     83 H83        29.5398   -1.3504   -2.7814 H         1 UNK         0.1631 
     84 H84        31.2550    2.0041   -2.4865 H         1 UNK         0.0717 
     85 H85        30.3995    1.2136   -1.1849 H         1 UNK         0.0717 
     86 H86        30.0984    2.5703   -4.9497 H         1 UNK         0.0934 
     87 H87        30.4014    0.8613   -5.0494 H         1 UNK         0.0934 
     88 H88        29.0375    1.4786   -6.8908 H         1 UNK         0.0739 
     89 H89        27.8489   -0.3644   -5.0183 H         1 UNK         0.3093 
     90 H90        25.8595   -1.9154   -7.6266 H         1 UNK         0.0818 
     91 H91        28.2375   -2.7276   -5.8669 H         1 UNK         0.0819 
     92 H92        27.0314   -3.8387   -6.5092 H         1 UNK         0.0819 
     93 H93        28.0876   -2.9593   -7.5994 H         1 UNK         0.0819 
     94 H94        26.0025   -2.2249   -4.7496 H         1 UNK         0.3041 
     95 H95        23.1754   -0.2055   -4.0140 H         1 UNK         0.0784 
     96 H96        21.9560   -2.1313   -4.9844 H         1 UNK         0.0793 
     97 H97        23.1428   -3.2516   -4.3340 H         1 UNK         0.0793 
     98 H98        22.1010   -2.3343   -3.2450 H         1 UNK         0.0793 
     99 H99        24.4802   -2.1860   -2.4490 H         1 UNK         0.3024 
    100 H100       27.4631   -0.4916   -1.6931 H         1 UNK         0.1171 
    101 H101       26.7198   -0.4785    0.6657 H         1 UNK         0.0786 
    102 H102       25.9115    0.8041   -0.2180 H         1 UNK         0.0786 
    103 H103       25.0368   -0.6719    0.1695 H         1 UNK         0.0786 
    104 H104       26.3945   -2.7158   -0.3982 H         1 UNK         0.2977 
    105 H105       26.1625    1.6443   -4.7877 H         1 UNK         0.3127 
    106 H106       25.5486    4.3808   -5.2587 H         1 UNK         0.0770 
    107 H107       23.6649    2.0066   -4.8108 H         1 UNK         0.0814 
    108 H108       23.2282    3.7019   -4.6552 H         1 UNK         0.0814 
    109 H109       24.3927    2.9965   -3.5453 H         1 UNK         0.0814 
    110 H110       25.1127    1.5119   -7.3045 H         1 UNK         0.2983 
    111 H111       23.6766    2.9788   -9.4128 H         1 UNK         0.0947 
    112 H112       23.6915    0.7736  -10.5460 H         1 UNK         0.0806 
    113 H113       23.1010    0.6019   -8.9021 H         1 UNK         0.0806 
    114 H114       24.7425    0.1067   -9.3049 H         1 UNK         0.0806 
    115 H115       26.7625    3.1613   -8.4167 H         1 UNK         0.3000 
    116 H116       28.6602    3.8986   -9.1930 H         1 UNK         0.0850 
    117 H117       28.7848    5.2122  -11.2556 H         1 UNK         0.0810 
    118 H118       27.2655    5.5610  -10.4508 H         1 UNK         0.0810 
    119 H119       27.2973    4.5059  -11.8640 H         1 UNK         0.0810 
    120 H120       28.0521    1.0103   -9.4695 H         1 UNK         0.3040 
    121 H121       29.8359    0.1515  -11.6567 H         1 UNK         0.0766 
    122 H122       27.8686   -1.2649  -10.8798 H         1 UNK         0.0812 
    123 H123       28.6795   -1.4645   -9.3273 H         1 UNK         0.0812 
    124 H124       29.4145   -2.0963  -10.7874 H         1 UNK         0.0812 
    125 H125       31.8283   -0.9944  -11.1680 H         1 UNK         0.3205 
    126 H126       33.5170    0.3851   -9.2779 H         1 UNK         0.0754 
    127 H127       35.2752   -1.1270  -10.2263 H         1 UNK         0.0769 
    128 H128       34.3408   -0.3757  -11.5077 H         1 UNK         0.0769 
    129 H129       34.0443   -2.0581  -11.0659 H         1 UNK         0.0769 
    130 H130       34.7679   -0.5624   -7.6123 H         1 UNK         0.2981 
    131 H131       33.4912   -2.3648   -5.8117 H         1 UNK         0.0541 
    132 H132       34.7162   -5.6042   -6.6104 H         1 UNK         0.3459 
    133 H133       33.6384   -4.6320   -5.6439 H         1 UNK         0.3459 
    134 H134       36.3865   -1.3587   -5.8931 H         1 UNK         0.0612 
    135 H135       35.0585   -0.5291   -5.1310 H         1 UNK         0.0612 
    136 H136       35.2169   -1.7801   -1.6049 H         1 UNK         0.0624 
    137 H137       35.3426   -0.3937   -2.6595 H         1 UNK         0.0624 
@<TRIPOS>BOND
     1    1    2 1    
     2    1   72 1    
     3    1   73 1    
     4    1   74 1    
     5    2    3 2    
     6    2    4 am   BACKBONE|DICT|INTERRES
     7    4    5 1    
     8    4   75 1    
     9    5    6 1    
    10    5   35 1    
    11    5   76 1    
    12    6    7 1    
    13    6   77 1    
    14    6   78 1    
    15    7    8 1    
    16    8    9 1    
    17    8   79 1    
    18    8   80 1    
    19    9   10 ar   
    20    9   14 ar   
    21   10   11 ar   
    22   10   81 1    
    23   11   12 ar   
    24   11   71 1    
    25   12   13 ar   
    26   12   82 1    
    27   13   14 ar   
    28   13   15 1    
    29   14   83 1    
    30   15   16 1    
    31   15   84 1    
    32   15   85 1    
    33   16   17 1    
    34   17   18 1    
    35   17   86 1    
    36   17   87 1    
    37   18   19 1    
    38   18   37 1    
    39   18   88 1    
    40   19   20 am   BACKBONE|DICT|INTERRES
    41   19   89 1    
    42   20   21 2    
    43   20   22 1    
    44   22   23 1    
    45   22   24 1    
    46   22   90 1    
    47   23   91 1    
    48   23   92 1    
    49   23   93 1    
    50   24   25 am   BACKBONE|DICT|INTERRES
    51   24   94 1    
    52   25   26 2    
    53   25   27 1    
    54   27   28 1    
    55   27   29 1    
    56   27   95 1    
    57   28   96 1    
    58   28   97 1    
    59   28   98 1    
    60   29   30 am   BACKBONE|DICT|INTERRES
    61   29   99 1    
    62   30   31 2    
    63   30   32 1    
    64   32   33 1    
    65   32   34 1    
    66   32  100 1    
    67   33  101 1    
    68   33  102 1    
    69   33  103 1    
    70   34   35 am   BACKBONE|DICT|INTERRES
    71   34  104 1    
    72   35   36 2    
    73   37   38 2    
    74   37   39 am   BACKBONE|DICT|INTERRES
    75   39   40 1    
    76   39  105 1    
    77   40   41 1    
    78   40   42 1    
    79   40  106 1    
    80   41  107 1    
    81   41  108 1    
    82   41  109 1    
    83   42   43 2    
    84   42   44 am   BACKBONE|DICT|INTERRES
    85   44   45 1    
    86   44  110 1    
    87   45   46 1    
    88   45   47 1    
    89   45  111 1    
    90   46  112 1    
    91   46  113 1    
    92   46  114 1    
    93   47   48 2    
    94   47   49 am   BACKBONE|DICT|INTERRES
    95   49   50 1    
    96   49  115 1    
    97   50   51 1    
    98   50   52 1    
    99   50  116 1    
   100   51  117 1    
   101   51  118 1    
   102   51  119 1    
   103   52   53 2    
   104   52   54 am   BACKBONE|DICT|INTERRES
   105   54   55 1    
   106   54  120 1    
   107   55   56 1    
   108   55   57 1    
   109   55  121 1    
   110   56  122 1    
   111   56  123 1    
   112   56  124 1    
   113   57   58 2    
   114   57   59 am   BACKBONE|DICT|INTERRES
   115   59   60 1    
   116   59  125 1    
   117   60   61 1    
   118   60   62 1    
   119   60  126 1    
   120   61  127 1    
   121   61  128 1    
   122   61  129 1    
   123   62   63 2    
   124   62   64 am   BACKBONE|DICT|INTERRES
   125   64   65 1    
   126   64  130 1    
   127   65   66 1    
   128   65   69 1    
   129   65  131 1    
   130   66   67 am   BACKBONE|DICT|INTERRES
   131   66   68 2    
   132   67  132 1    
   133   67  133 1    
   134   69   70 1    
   135   69  134 1    
   136   69  135 1    
   137   70   71 1    
   138   71  136 1    
   139   71  137 1    
@<TRIPOS>SUBSTRUCTURE
     1 UNK         1 GROUP             0       ****    0 ROOT    
