@<TRIPOS>MOLECULE
3R137
137   139    1
SMALL
USER_CHARGES


@<TRIPOS>ATOM
      1 CA         26.1516   -6.3315   -7.5998 C.3       0 UNK        -0.2020 
      2 C          26.9839   -5.0786   -7.8610 C.2       0 UNK         0.4855 
      3 O          27.3401   -4.8236   -9.0084 O.2       0 UNK        -0.5197 
      4 N          27.3313   -4.2752   -6.8457 N.am      1 UNK        -0.4892 
      5 CA         26.9401   -4.4037   -5.4402 C.3       1 UNK         0.0835 
      6 C6         27.8996   -3.6062   -4.5211 C.3       12 UNK        -0.0855 
      7 S7         27.5957   -3.9236   -2.7476 S.3       12 UNK        -0.2931 
      8 C8         29.2847   -4.1957   -2.1197 C.3       12 UNK         0.0378 
      9 C9         30.1085   -2.9148   -2.1223 C.ar      12 UNK        -0.0802 
     10 C10        31.3169   -2.8456   -2.8218 C.ar      12 UNK        -0.0944 
     11 C11        32.0847   -1.6760   -2.8012 C.ar      12 UNK        -0.0787 
     12 C12        31.6203   -0.5584   -2.0997 C.ar      12 UNK        -0.0862 
     13 C13        30.4095   -0.6157   -1.4006 C.ar      12 UNK        -0.0733 
     14 C14        29.6707   -1.8015   -1.4010 C.ar      12 UNK        -0.0832 
     15 C15        29.8897    0.5955   -0.6394 C.3       12 UNK         0.0240 
     16 S16        28.3001    1.1852   -1.3101 S.3       12 UNK        -0.2522 
     17 C17        28.7965    1.7540   -2.9699 C.3       12 UNK        -0.0967 
     18 CA         28.4467    0.7290   -4.0907 C.3       5 UNK         0.0660 
     19 N          27.0149    0.4207   -4.1627 N.am      5 UNK        -0.4015 
     20 C          26.0338    1.2442   -4.5632 C.2       4 UNK         0.4946 
     21 O          26.2231    2.3944   -4.9638 O.2       4 UNK        -0.5353 
     22 CA         24.5946    0.7003   -4.5135 C.3       4 UNK         0.0277 
     23 CB         24.0739    0.4085   -5.9289 C.3       4 UNK        -0.1981 
     24 N          24.4747   -0.5151   -3.7020 N.am      4 UNK        -0.4209 
     25 C          24.3062   -0.5211   -2.3701 C.2       3 UNK         0.4942 
     26 O          24.2210    0.5092   -1.7002 O.2       3 UNK        -0.5208 
     27 CA         24.2483   -1.8864   -1.6487 C.3       3 UNK         0.0250 
     28 CB         23.1975   -1.9088   -0.5179 C.3       3 UNK        -0.1990 
     29 N          24.0890   -3.0414   -2.5418 N.am      3 UNK        -0.4232 
     30 C          23.0503   -3.3338   -3.3420 C.2       2 UNK         0.4993 
     31 O          22.0028   -2.6869   -3.3728 O.2       2 UNK        -0.5286 
     32 CA         23.2388   -4.5357   -4.2946 C.3       2 UNK         0.0209 
     33 CB         22.3727   -4.4209   -5.5684 C.3       2 UNK        -0.1931 
     34 N          24.6458   -4.7881   -4.6514 N.am      2 UNK        -0.4546 
     35 C          25.4848   -3.9326   -5.2578 C.2       1 UNK         0.5154 
     36 O          25.1737   -2.7918   -5.6056 O.2       1 UNK        -0.5181 
     37 C          28.9832    1.1200   -5.4849 C.2       5 UNK         0.5014 
     38 O          28.8065    0.3532   -6.4364 O.2       5 UNK        -0.5248 
     39 N          29.6047    2.3034   -5.5931 N.am      6 UNK        -0.4434 
     40 CA         30.2194    2.8562   -6.8007 C.3       6 UNK         0.0363 
     41 CB         30.8539    4.2151   -6.4645 C.3       6 UNK        -0.1936 
     42 C          29.2801    2.9898   -8.0093 C.2       6 UNK         0.5081 
     43 O          29.7582    2.9200   -9.1408 O.2       6 UNK        -0.5248 
     44 N          27.9725    3.1417   -7.7628 N.am      7 UNK        -0.4718 
     45 CA         26.9461    3.2261   -8.8039 C.3       7 UNK         0.0273 
     46 CB         25.6446    3.7629   -8.1872 C.3       7 UNK        -0.1935 
     47 C          26.6974    1.8995   -9.5484 C.2       7 UNK         0.5018 
     48 O          26.1050    1.9378  -10.6279 O.2       7 UNK        -0.5186 
     49 N          27.1407    0.7673   -8.9809 N.am      8 UNK        -0.4240 
     50 CA         27.0077   -0.5621   -9.5805 C.3       8 UNK         0.0235 
     51 CB         26.0412   -1.4118   -8.7407 C.3       8 UNK        -0.2000 
     52 C          28.3638   -1.2640   -9.7303 C.2       8 UNK         0.4941 
     53 O          28.6554   -1.7768  -10.8109 O.2       8 UNK        -0.5273 
     54 N          29.1684   -1.2856   -8.6584 N.am      9 UNK        -0.4262 
     55 CA         30.4223   -2.0431   -8.5884 C.3       9 UNK         0.0264 
     56 CB         30.6429   -2.5004   -7.1366 C.3       9 UNK        -0.1955 
     57 C          31.6532   -1.2831   -9.1151 C.2       9 UNK         0.5031 
     58 O          32.7177   -1.8932   -9.2218 O.2       9 UNK        -0.5390 
     59 N          31.5078    0.0176   -9.4170 N.am      10 UNK        -0.4204 
     60 CA         32.5598    0.9381   -9.8805 C.3       10 UNK         0.0237 
     61 CB         33.0966    0.5209  -11.2674 C.3       10 UNK        -0.1985 
     62 C          33.6836    1.1718   -8.8456 C.2       10 UNK         0.4970 
     63 O          34.8183    1.4676   -9.2230 O.2       10 UNK        -0.4914 
     64 N          33.3346    1.0617   -7.5580 N.am      11 UNK        -0.4285 
     65 CA         34.1980    1.2820   -6.3853 C.3       11 UNK         0.1007 
     66 C          34.6732    2.7506   -6.1616 C.2       11 UNK         0.5703 
     67 N          34.2283    3.7306   -6.9389 N.am      11 UNK        -0.7361 
     68 O          35.4744    3.0043   -5.2647 O.2       11 UNK        -0.4986 
     69 C69        33.5356    0.7050   -5.1037 C.3       12 UNK        -0.0947 
     70 S70        33.2843   -1.0969   -5.2333 S.3       12 UNK        -0.2240 
     71 C71        33.4332   -1.6427   -3.5061 C.3       12 UNK         0.0194 
     72 H72        26.0570   -6.9196   -8.5128 H         1 UNK         0.0906 
     73 H73        26.6188   -6.9694   -6.8504 H         1 UNK         0.0906 
     74 H74        25.1454   -6.0719   -7.2729 H         1 UNK         0.0906 
     75 H75        27.8438   -3.4360   -7.0698 H         1 UNK         0.3140 
     76 H76        27.0172   -5.4546   -5.1549 H         1 UNK         0.1085 
     77 H77        27.8307   -2.5326   -4.7089 H         1 UNK         0.0836 
     78 H78        28.9305   -3.8818   -4.7480 H         1 UNK         0.0836 
     79 H79        29.2230   -4.5707   -1.0972 H         1 UNK         0.0731 
     80 H80        29.7680   -4.9794   -2.7053 H         1 UNK         0.0731 
     81 H81        31.6716   -3.7076   -3.3702 H         1 UNK         0.1312 
     82 H82        32.2078    0.3494   -2.0908 H         1 UNK         0.1406 
     83 H83        28.7376   -1.8503   -0.8556 H         1 UNK         0.1631 
     84 H84        30.6143    1.4112   -0.6523 H         1 UNK         0.0717 
     85 H85        29.7516    0.3244    0.4082 H         1 UNK         0.0717 
     86 H86        28.3002    2.7098   -3.1491 H         1 UNK         0.0934 
     87 H87        29.8683    1.9607   -2.9492 H         1 UNK         0.0934 
     88 H88        28.9449   -0.2111   -3.8496 H         1 UNK         0.0739 
     89 H89        26.7533   -0.5083   -3.8716 H         1 UNK         0.3093 
     90 H90        23.9663    1.4816   -4.0805 H         1 UNK         0.0818 
     91 H91        23.0566    0.0172   -5.9058 H         1 UNK         0.0819 
     92 H92        24.0585    1.3126   -6.5368 H         1 UNK         0.0819 
     93 H93        24.7001   -0.3196   -6.4415 H         1 UNK         0.0819 
     94 H94        24.5338   -1.3967   -4.2022 H         1 UNK         0.3041 
     95 H95        25.2277   -2.0097   -1.1834 H         1 UNK         0.0784 
     96 H96        23.4155   -1.1504    0.2352 H         1 UNK         0.0793 
     97 H97        22.1930   -1.7113   -0.8930 H         1 UNK         0.0793 
     98 H98        23.1828   -2.8722   -0.0082 H         1 UNK         0.0793 
     99 H99        24.9004   -3.6419   -2.6061 H         1 UNK         0.3024 
    100 H100       22.8953   -5.4107   -3.7397 H         1 UNK         0.1171 
    101 H101       22.5126   -5.2811   -6.2229 H         1 UNK         0.0786 
    102 H102       22.6095   -3.5225   -6.1397 H         1 UNK         0.0786 
    103 H103       21.3118   -4.3761   -5.3189 H         1 UNK         0.0786 
    104 H104       25.0039   -5.6903   -4.3663 H         1 UNK         0.2977 
    105 H105       29.6594    2.8844   -4.7696 H         1 UNK         0.3127 
    106 H106       31.0109    2.1703   -7.0948 H         1 UNK         0.0770 
    107 H107       30.1076    4.9361   -6.1262 H         1 UNK         0.0814 
    108 H108       31.3462    4.6451   -7.3380 H         1 UNK         0.0814 
    109 H109       31.6091    4.1218   -5.6832 H         1 UNK         0.0814 
    110 H110       27.6527    3.1535   -6.8017 H         1 UNK         0.2983 
    111 H111       27.2854    3.9469   -9.5515 H         1 UNK         0.0947 
    112 H112       24.8624    3.8589   -8.9413 H         1 UNK         0.0806 
    113 H113       25.7917    4.7494   -7.7475 H         1 UNK         0.0806 
    114 H114       25.2670    3.1036   -7.4071 H         1 UNK         0.0806 
    115 H115       27.6296    0.8291   -8.0948 H         1 UNK         0.3000 
    116 H116       26.5870   -0.4856  -10.5856 H         1 UNK         0.0850 
    117 H117       25.9409   -2.4154   -9.1554 H         1 UNK         0.0810 
    118 H118       25.0442   -0.9722   -8.7244 H         1 UNK         0.0810 
    119 H119       26.3820   -1.5144   -7.7101 H         1 UNK         0.0810 
    120 H120       28.9015   -0.7840   -7.8120 H         1 UNK         0.3040 
    121 H121       30.3282   -2.9417   -9.2023 H         1 UNK         0.0766 
    122 H122       31.6030   -3.0052   -7.0209 H         1 UNK         0.0812 
    123 H123       29.8794   -3.2099   -6.8280 H         1 UNK         0.0812 
    124 H124       30.6272   -1.6636   -6.4383 H         1 UNK         0.0812 
    125 H125       30.5862    0.4217   -9.3182 H         1 UNK         0.3205 
    126 H126       32.0742    1.9065  -10.0066 H         1 UNK         0.0754 
    127 H127       33.7516    1.2887  -11.6807 H         1 UNK         0.0769 
    128 H128       32.2840    0.3740  -11.9792 H         1 UNK         0.0769 
    129 H129       33.6730   -0.4037  -11.2197 H         1 UNK         0.0769 
    130 H130       32.3963    0.7601   -7.3489 H         1 UNK         0.2981 
    131 H131       35.1147    0.7167   -6.5651 H         1 UNK         0.0541 
    132 H132       33.6081    3.5359   -7.7064 H         1 UNK         0.3459 
    133 H133       34.5579    4.6693   -6.7793 H         1 UNK         0.3459 
    134 H134       32.5723    1.1824   -4.9131 H         1 UNK         0.0612 
    135 H135       34.1580    0.9055   -4.2296 H         1 UNK         0.0612 
    136 H136       33.8703   -2.6422   -3.5017 H         1 UNK         0.0624 
    137 H137       34.1359   -1.0107   -2.9621 H         1 UNK         0.0624 
@<TRIPOS>BOND
     1    1    2 1    
     2    1   72 1    
     3    1   73 1    
     4    1   74 1    
     5    2    3 2    
     6    2    4 am   BACKBONE|DICT|INTERRES
     7    4    5 1    
     8    4   75 1    
     9    5    6 1    
    10    5   35 1    
    11    5   76 1    
    12    6    7 1    
    13    6   77 1    
    14    6   78 1    
    15    7    8 1    
    16    8    9 1    
    17    8   79 1    
    18    8   80 1    
    19    9   10 ar   
    20    9   14 ar   
    21   10   11 ar   
    22   10   81 1    
    23   11   12 ar   
    24   11   71 1    
    25   12   13 ar   
    26   12   82 1    
    27   13   14 ar   
    28   13   15 1    
    29   14   83 1    
    30   15   16 1    
    31   15   84 1    
    32   15   85 1    
    33   16   17 1    
    34   17   18 1    
    35   17   86 1    
    36   17   87 1    
    37   18   19 1    
    38   18   37 1    
    39   18   88 1    
    40   19   20 am   BACKBONE|DICT|INTERRES
    41   19   89 1    
    42   20   21 2    
    43   20   22 1    
    44   22   23 1    
    45   22   24 1    
    46   22   90 1    
    47   23   91 1    
    48   23   92 1    
    49   23   93 1    
    50   24   25 am   BACKBONE|DICT|INTERRES
    51   24   94 1    
    52   25   26 2    
    53   25   27 1    
    54   27   28 1    
    55   27   29 1    
    56   27   95 1    
    57   28   96 1    
    58   28   97 1    
    59   28   98 1    
    60   29   30 am   BACKBONE|DICT|INTERRES
    61   29   99 1    
    62   30   31 2    
    63   30   32 1    
    64   32   33 1    
    65   32   34 1    
    66   32  100 1    
    67   33  101 1    
    68   33  102 1    
    69   33  103 1    
    70   34   35 am   BACKBONE|DICT|INTERRES
    71   34  104 1    
    72   35   36 2    
    73   37   38 2    
    74   37   39 am   BACKBONE|DICT|INTERRES
    75   39   40 1    
    76   39  105 1    
    77   40   41 1    
    78   40   42 1    
    79   40  106 1    
    80   41  107 1    
    81   41  108 1    
    82   41  109 1    
    83   42   43 2    
    84   42   44 am   BACKBONE|DICT|INTERRES
    85   44   45 1    
    86   44  110 1    
    87   45   46 1    
    88   45   47 1    
    89   45  111 1    
    90   46  112 1    
    91   46  113 1    
    92   46  114 1    
    93   47   48 2    
    94   47   49 am   BACKBONE|DICT|INTERRES
    95   49   50 1    
    96   49  115 1    
    97   50   51 1    
    98   50   52 1    
    99   50  116 1    
   100   51  117 1    
   101   51  118 1    
   102   51  119 1    
   103   52   53 2    
   104   52   54 am   BACKBONE|DICT|INTERRES
   105   54   55 1    
   106   54  120 1    
   107   55   56 1    
   108   55   57 1    
   109   55  121 1    
   110   56  122 1    
   111   56  123 1    
   112   56  124 1    
   113   57   58 2    
   114   57   59 am   BACKBONE|DICT|INTERRES
   115   59   60 1    
   116   59  125 1    
   117   60   61 1    
   118   60   62 1    
   119   60  126 1    
   120   61  127 1    
   121   61  128 1    
   122   61  129 1    
   123   62   63 2    
   124   62   64 am   BACKBONE|DICT|INTERRES
   125   64   65 1    
   126   64  130 1    
   127   65   66 1    
   128   65   69 1    
   129   65  131 1    
   130   66   67 am   BACKBONE|DICT|INTERRES
   131   66   68 2    
   132   67  132 1    
   133   67  133 1    
   134   69   70 1    
   135   69  134 1    
   136   69  135 1    
   137   70   71 1    
   138   71  136 1    
   139   71  137 1    
@<TRIPOS>SUBSTRUCTURE
     1 UNK         1 GROUP             0       ****    0 ROOT    
