@<TRIPOS>MOLECULE
3R137
137   139    1
SMALL
USER_CHARGES


@<TRIPOS>ATOM
      1 CA         26.2225   -2.8379    0.2159 C.3       0 UNK        -0.2020 
      2 C          26.3909   -1.5322   -0.5451 C.2       0 UNK         0.4855 
      3 O          25.5722   -0.6258   -0.3890 O.2       0 UNK        -0.5197 
      4 N          27.4403   -1.4361   -1.3731 N.am      1 UNK        -0.4892 
      5 CA         27.7849   -0.2937   -2.2298 C.3       1 UNK         0.0835 
      6 C6         29.0177   -0.6116   -3.1081 C.3       12 UNK        -0.0855 
      7 S7         30.5326   -0.9640   -2.1570 S.3       12 UNK        -0.2931 
      8 C8         31.8121   -0.6017   -3.4057 C.3       12 UNK         0.0378 
      9 C9         31.8464   -1.6520   -4.5102 C.ar      12 UNK        -0.0802 
     10 C10        32.7704   -2.7013   -4.4535 C.ar      12 UNK        -0.0944 
     11 C11        32.7941   -3.6817   -5.4507 C.ar      12 UNK        -0.0787 
     12 C12        31.8720   -3.6178   -6.4987 C.ar      12 UNK        -0.0862 
     13 C13        30.9599   -2.5626   -6.5804 C.ar      12 UNK        -0.0733 
     14 C14        30.9589   -1.5777   -5.5898 C.ar      12 UNK        -0.0832 
     15 C15        29.9949   -2.4771   -7.7523 C.3       12 UNK         0.0240 
     16 S16        28.3577   -3.1376   -7.3128 S.3       12 UNK        -0.2522 
     17 C17        27.3241   -1.6552   -7.5340 C.3       12 UNK        -0.0967 
     18 CA         25.8110   -1.9623   -7.3995 C.3       5 UNK         0.0660 
     19 N          25.4681   -2.3731   -6.0416 N.am      5 UNK        -0.4015 
     20 C          24.8563   -3.5119   -5.7000 C.2       4 UNK         0.4946 
     21 O          24.4464   -4.3456   -6.5093 O.2       4 UNK        -0.5353 
     22 CA         24.6771   -3.7752   -4.1983 C.3       4 UNK         0.0277 
     23 CB         26.0192   -4.1735   -3.5589 C.3       4 UNK        -0.1981 
     24 N          24.1388   -2.6036   -3.5050 N.am      4 UNK        -0.4209 
     25 C          22.8687   -2.4729   -3.0946 C.2       3 UNK         0.4942 
     26 O          22.0016   -3.3278   -3.2806 O.2       3 UNK        -0.5208 
     27 CA         22.4868   -1.1939   -2.3242 C.3       3 UNK         0.0250 
     28 CB         22.2719   -1.5066   -0.8338 C.3       3 UNK        -0.1990 
     29 N          23.4861   -0.1306   -2.4527 N.am      3 UNK        -0.4232 
     30 C          23.5318    0.7332   -3.4777 C.2       2 UNK         0.4993 
     31 O          22.6723    0.7875   -4.3576 O.2       2 UNK        -0.5286 
     32 CA         24.7365    1.6925   -3.5506 C.3       2 UNK         0.0209 
     33 CB         24.3491    3.0821   -3.0195 C.3       2 UNK        -0.1931 
     34 N          25.9363    1.2237   -2.8432 N.am      2 UNK        -0.4546 
     35 C          26.6007    0.0976   -3.1353 C.2       1 UNK         0.5154 
     36 O          26.2767   -0.6617   -4.0485 O.2       1 UNK        -0.5181 
     37 C          25.0059   -0.7005   -7.7307 C.2       5 UNK         0.5014 
     38 O          25.0265    0.2491   -6.9461 O.2       5 UNK        -0.5248 
     39 N          24.3886   -0.6657   -8.9202 N.am      6 UNK        -0.4434 
     40 CA         23.6796    0.5075   -9.4503 C.3       6 UNK         0.0363 
     41 CB         22.9239    0.1152  -10.7300 C.3       6 UNK        -0.1936 
     42 C          24.6052    1.7108   -9.7171 C.2       6 UNK         0.5081 
     43 O          24.1622    2.8542   -9.6111 O.2       6 UNK        -0.5248 
     44 N          25.8793    1.4308  -10.0280 N.am      7 UNK        -0.4718 
     45 CA         26.9489    2.4236  -10.1680 C.3       7 UNK         0.0273 
     46 CB         28.1078    1.7934  -10.9593 C.3       7 UNK        -0.1935 
     47 C          27.4622    2.9656   -8.8192 C.2       7 UNK         0.5018 
     48 O          28.1611    3.9783   -8.8140 O.2       7 UNK        -0.5186 
     49 N          27.1412    2.2709   -7.7156 N.am      8 UNK        -0.4240 
     50 CA         27.4957    2.5494   -6.3175 C.3       8 UNK         0.0235 
     51 CB         26.8751    3.8814   -5.8492 C.3       8 UNK        -0.2000 
     52 C          28.9940    2.4662   -5.9634 C.2       8 UNK         0.4941 
     53 O          29.3263    2.6352   -4.7897 O.2       8 UNK        -0.5273 
     54 N          29.8712    2.1821   -6.9329 N.am      9 UNK        -0.4262 
     55 CA         31.3121    2.0527   -6.7474 C.3       9 UNK         0.0264 
     56 CB         31.9674    3.4443   -6.6645 C.3       9 UNK        -0.1955 
     57 C          31.9066    1.2425   -7.9022 C.2       9 UNK         0.5031 
     58 O          31.4221    1.3475   -9.0312 O.2       9 UNK        -0.5390 
     59 N          32.9619    0.4897   -7.5824 N.am      10 UNK        -0.4204 
     60 CA         33.8556   -0.2843   -8.4410 C.3       10 UNK         0.0237 
     61 CB         33.1135   -1.3593   -9.2677 C.3       10 UNK        -0.1985 
     62 C          34.9138   -0.8969   -7.5042 C.2       10 UNK         0.4970 
     63 O          34.9964   -0.4897   -6.3405 O.2       10 UNK        -0.4914 
     64 N          35.7032   -1.8495   -8.0173 N.am      11 UNK        -0.4285 
     65 CA         36.7490   -2.5889   -7.2820 C.3       11 UNK         0.1007 
     66 C          37.9653   -1.7229   -6.8257 C.2       11 UNK         0.5703 
     67 N          38.1828   -0.5405   -7.3901 N.am      11 UNK        -0.7361 
     68 O          38.7493   -2.1390   -5.9754 O.2       11 UNK        -0.4986 
     69 C69        36.1780   -3.4802   -6.1367 C.3       12 UNK        -0.0947 
     70 S70        35.0143   -4.7465   -6.7455 S.3       12 UNK        -0.2240 
     71 C71        33.7955   -4.8265   -5.3927 C.3       12 UNK         0.0194 
     72 H72        25.2984   -3.3304   -0.0853 H         1 UNK         0.0906 
     73 H73        27.0483   -3.5257    0.0348 H         1 UNK         0.0906 
     74 H74        26.1720   -2.6435    1.2869 H         1 UNK         0.0906 
     75 H75        28.0829   -2.2129   -1.4391 H         1 UNK         0.3140 
     76 H76        28.0263    0.5517   -1.5822 H         1 UNK         0.1085 
     77 H77        29.2231    0.2300   -3.7699 H         1 UNK         0.0836 
     78 H78        28.8153   -1.4705   -3.7519 H         1 UNK         0.0836 
     79 H79        32.7816   -0.5545   -2.9072 H         1 UNK         0.0731 
     80 H80        31.6434    0.3906   -3.8236 H         1 UNK         0.0731 
     81 H81        33.4688   -2.7567   -3.6298 H         1 UNK         0.1312 
     82 H82        31.8817   -4.3817   -7.2644 H         1 UNK         0.1406 
     83 H83        30.2530   -0.7627   -5.6566 H         1 UNK         0.1631 
     84 H84        30.3794   -3.0415   -8.6031 H         1 UNK         0.0717 
     85 H85        29.9214   -1.4420   -8.0895 H         1 UNK         0.0717 
     86 H86        27.6360   -0.9047   -6.8037 H         1 UNK         0.0934 
     87 H87        27.5427   -1.2408   -8.5204 H         1 UNK         0.0934 
     88 H88        25.5473   -2.7452   -8.1139 H         1 UNK         0.0739 
     89 H89        25.7398   -1.7118   -5.3134 H         1 UNK         0.3093 
     90 H90        23.9962   -4.6224   -4.0902 H         1 UNK         0.0818 
     91 H91        26.4429   -5.0470   -4.0564 H         1 UNK         0.0819 
     92 H92        26.7578   -3.3738   -3.6249 H         1 UNK         0.0819 
     93 H93        25.8951   -4.4295   -2.5069 H         1 UNK         0.0819 
     94 H94        24.7735   -1.8223   -3.3858 H         1 UNK         0.3041 
     95 H95        21.5357   -0.8423   -2.7301 H         1 UNK         0.0784 
     96 H96        21.4836   -2.2488   -0.7007 H         1 UNK         0.0793 
     97 H97        23.1733   -1.9043   -0.3677 H         1 UNK         0.0793 
     98 H98        21.9736   -0.6160   -0.2804 H         1 UNK         0.0793 
     99 H99        24.2250   -0.1120   -1.7540 H         1 UNK         0.3024 
    100 H100       24.9873    1.7853   -4.6090 H         1 UNK         0.1171 
    101 H101       25.1603    3.7989   -3.1451 H         1 UNK         0.0786 
    102 H102       23.4851    3.4775   -3.5557 H         1 UNK         0.0786 
    103 H103       24.0891    3.0503   -1.9606 H         1 UNK         0.0786 
    104 H104       26.2314    1.7700   -2.0463 H         1 UNK         0.2977 
    105 H105       24.4183   -1.4831   -9.5139 H         1 UNK         0.3127 
    106 H106       22.9476    0.8202   -8.7022 H         1 UNK         0.0770 
    107 H107       23.6021   -0.2265  -11.5130 H         1 UNK         0.0814 
    108 H108       22.3679    0.9647  -11.1294 H         1 UNK         0.0814 
    109 H109       22.2024   -0.6792  -10.5381 H         1 UNK         0.0814 
    110 H110       26.1410    0.4617  -10.1333 H         1 UNK         0.2983 
    111 H111       26.5642    3.2740  -10.7356 H         1 UNK         0.0947 
    112 H112       28.9128    2.5136  -11.1142 H         1 UNK         0.0806 
    113 H113       27.7818    1.4601  -11.9447 H         1 UNK         0.0806 
    114 H114       28.5381    0.9369  -10.4384 H         1 UNK         0.0806 
    115 H115       26.5137    1.4838   -7.8305 H         1 UNK         0.3000 
    116 H116       27.0285    1.7497   -5.7429 H         1 UNK         0.0850 
    117 H117       27.0313    4.0322   -4.7805 H         1 UNK         0.0810 
    118 H118       25.7994    3.9004   -6.0242 H         1 UNK         0.0810 
    119 H119       27.3150    4.7366   -6.3628 H         1 UNK         0.0810 
    120 H120       29.5526    2.0628   -7.8860 H         1 UNK         0.3040 
    121 H121       31.4988    1.5161   -5.8167 H         1 UNK         0.0766 
    122 H122       31.5972    4.0102   -5.8095 H         1 UNK         0.0812 
    123 H123       31.7733    4.0315   -7.5631 H         1 UNK         0.0812 
    124 H124       33.0495    3.3637   -6.5527 H         1 UNK         0.0812 
    125 H125       33.2905    0.4788   -6.6216 H         1 UNK         0.3205 
    126 H126       34.3563    0.4116   -9.1162 H         1 UNK         0.0754 
    127 H127       33.7656   -1.7805  -10.0330 H         1 UNK         0.0769 
    128 H128       32.2447   -0.9615   -9.7898 H         1 UNK         0.0769 
    129 H129       32.7798   -2.1860   -8.6452 H         1 UNK         0.0769 
    130 H130       35.5801   -2.1166   -8.9826 H         1 UNK         0.2981 
    131 H131       37.1814   -3.2671   -8.0182 H         1 UNK         0.0541 
    132 H132       37.5606   -0.1893   -8.0996 H         1 UNK         0.3459 
    133 H133       38.9775    0.0063   -7.0981 H         1 UNK         0.3459 
    134 H134       36.9798   -4.0153   -5.6255 H         1 UNK         0.0612 
    135 H135       35.6935   -2.8663   -5.3765 H         1 UNK         0.0612 
    136 H136       34.3171   -4.8473   -4.4345 H         1 UNK         0.0624 
    137 H137       33.2549   -5.7710   -5.4669 H         1 UNK         0.0624 
@<TRIPOS>BOND
     1    1    2 1    
     2    1   72 1    
     3    1   73 1    
     4    1   74 1    
     5    2    3 2    
     6    2    4 am   BACKBONE|DICT|INTERRES
     7    4    5 1    
     8    4   75 1    
     9    5    6 1    
    10    5   35 1    
    11    5   76 1    
    12    6    7 1    
    13    6   77 1    
    14    6   78 1    
    15    7    8 1    
    16    8    9 1    
    17    8   79 1    
    18    8   80 1    
    19    9   10 ar   
    20    9   14 ar   
    21   10   11 ar   
    22   10   81 1    
    23   11   12 ar   
    24   11   71 1    
    25   12   13 ar   
    26   12   82 1    
    27   13   14 ar   
    28   13   15 1    
    29   14   83 1    
    30   15   16 1    
    31   15   84 1    
    32   15   85 1    
    33   16   17 1    
    34   17   18 1    
    35   17   86 1    
    36   17   87 1    
    37   18   19 1    
    38   18   37 1    
    39   18   88 1    
    40   19   20 am   BACKBONE|DICT|INTERRES
    41   19   89 1    
    42   20   21 2    
    43   20   22 1    
    44   22   23 1    
    45   22   24 1    
    46   22   90 1    
    47   23   91 1    
    48   23   92 1    
    49   23   93 1    
    50   24   25 am   BACKBONE|DICT|INTERRES
    51   24   94 1    
    52   25   26 2    
    53   25   27 1    
    54   27   28 1    
    55   27   29 1    
    56   27   95 1    
    57   28   96 1    
    58   28   97 1    
    59   28   98 1    
    60   29   30 am   BACKBONE|DICT|INTERRES
    61   29   99 1    
    62   30   31 2    
    63   30   32 1    
    64   32   33 1    
    65   32   34 1    
    66   32  100 1    
    67   33  101 1    
    68   33  102 1    
    69   33  103 1    
    70   34   35 am   BACKBONE|DICT|INTERRES
    71   34  104 1    
    72   35   36 2    
    73   37   38 2    
    74   37   39 am   BACKBONE|DICT|INTERRES
    75   39   40 1    
    76   39  105 1    
    77   40   41 1    
    78   40   42 1    
    79   40  106 1    
    80   41  107 1    
    81   41  108 1    
    82   41  109 1    
    83   42   43 2    
    84   42   44 am   BACKBONE|DICT|INTERRES
    85   44   45 1    
    86   44  110 1    
    87   45   46 1    
    88   45   47 1    
    89   45  111 1    
    90   46  112 1    
    91   46  113 1    
    92   46  114 1    
    93   47   48 2    
    94   47   49 am   BACKBONE|DICT|INTERRES
    95   49   50 1    
    96   49  115 1    
    97   50   51 1    
    98   50   52 1    
    99   50  116 1    
   100   51  117 1    
   101   51  118 1    
   102   51  119 1    
   103   52   53 2    
   104   52   54 am   BACKBONE|DICT|INTERRES
   105   54   55 1    
   106   54  120 1    
   107   55   56 1    
   108   55   57 1    
   109   55  121 1    
   110   56  122 1    
   111   56  123 1    
   112   56  124 1    
   113   57   58 2    
   114   57   59 am   BACKBONE|DICT|INTERRES
   115   59   60 1    
   116   59  125 1    
   117   60   61 1    
   118   60   62 1    
   119   60  126 1    
   120   61  127 1    
   121   61  128 1    
   122   61  129 1    
   123   62   63 2    
   124   62   64 am   BACKBONE|DICT|INTERRES
   125   64   65 1    
   126   64  130 1    
   127   65   66 1    
   128   65   69 1    
   129   65  131 1    
   130   66   67 am   BACKBONE|DICT|INTERRES
   131   66   68 2    
   132   67  132 1    
   133   67  133 1    
   134   69   70 1    
   135   69  134 1    
   136   69  135 1    
   137   70   71 1    
   138   71  136 1    
   139   71  137 1    
@<TRIPOS>SUBSTRUCTURE
     1 UNK         1 GROUP             0       ****    0 ROOT    
