@<TRIPOS>MOLECULE
3R137
137   139    1
SMALL
USER_CHARGES


@<TRIPOS>ATOM
      1 CA         27.0915   -4.6485    1.8493 C.3       0 UNK        -0.2020 
      2 C          27.0549   -3.1943    1.4038 C.2       0 UNK         0.4855 
      3 O          26.3467   -2.3873    2.0062 O.2       0 UNK        -0.5197 
      4 N          27.8157   -2.8550    0.3547 N.am      1 UNK        -0.4892 
      5 CA         27.8987   -1.5051   -0.2197 C.3       1 UNK         0.0835 
      6 C6         29.1185   -1.3506   -1.1629 C.3       12 UNK        -0.0855 
      7 S7         30.7208   -1.4601   -0.2918 S.3       12 UNK        -0.2931 
      8 C8         31.2003   -3.2108   -0.4682 C.3       12 UNK         0.0378 
      9 C9         31.3886   -3.6312   -1.9193 C.ar      12 UNK        -0.0802 
     10 C10        32.5514   -3.2826   -2.6135 C.ar      12 UNK        -0.0944 
     11 C11        32.7402   -3.6851   -3.9404 C.ar      12 UNK        -0.0787 
     12 C12        31.7551   -4.4631   -4.5617 C.ar      12 UNK        -0.0862 
     13 C13        30.5697   -4.7813   -3.8918 C.ar      12 UNK        -0.0733 
     14 C14        30.4017   -4.3799   -2.5652 C.ar      12 UNK        -0.0832 
     15 C15        29.4452   -5.5171   -4.6097 C.3       12 UNK         0.0240 
     16 S16        28.8415   -4.6331   -6.0904 S.3       12 UNK        -0.2522 
     17 C17        28.8313   -2.8848   -5.5603 C.3       12 UNK        -0.0967 
     18 CA         28.2967   -1.9708   -6.6853 C.3       5 UNK         0.0660 
     19 N          26.8486   -2.0596   -6.8249 N.am      5 UNK        -0.4015 
     20 C          26.1970   -1.9380   -7.9860 C.2       4 UNK         0.4946 
     21 O          26.7539   -1.7963   -9.0747 O.2       4 UNK        -0.5353 
     22 CA         24.6591   -1.9206   -7.9102 C.3       4 UNK         0.0277 
     23 CB         24.1039   -3.3535   -7.8914 C.3       4 UNK        -0.1981 
     24 N          24.1539   -1.1816   -6.7491 N.am      4 UNK        -0.4209 
     25 C          24.4160    0.1093   -6.4998 C.2       3 UNK         0.4942 
     26 O          25.0522    0.8366   -7.2639 O.2       3 UNK        -0.5208 
     27 CA         23.9418    0.6777   -5.1516 C.3       3 UNK         0.0250 
     28 CB         22.5589    1.3287   -5.3081 C.3       3 UNK        -0.1990 
     29 N          23.9096   -0.2830   -4.0380 N.am      3 UNK        -0.4232 
     30 C          24.9386   -1.0297   -3.6091 C.2       2 UNK         0.4993 
     31 O          26.0279   -1.0994   -4.1838 O.2       2 UNK        -0.5286 
     32 CA         24.6951   -1.8847   -2.3548 C.3       2 UNK         0.0209 
     33 CB         24.1424   -3.2622   -2.7549 C.3       2 UNK        -0.1931 
     34 N          25.9192   -2.0759   -1.5707 N.am      2 UNK        -0.4546 
     35 C          26.5972   -1.1002   -0.9463 C.2       1 UNK         0.5154 
     36 O          26.2274    0.0745   -0.9127 O.2       1 UNK        -0.5181 
     37 C          28.7198   -0.5087   -6.4710 C.2       5 UNK         0.5014 
     38 O          29.6084   -0.0329   -7.1759 O.2       5 UNK        -0.5248 
     39 N          28.1007    0.1708   -5.4976 N.am      6 UNK        -0.4434 
     40 CA         28.5222    1.4842   -5.0078 C.3       6 UNK         0.0363 
     41 CB         27.7694    1.8103   -3.7087 C.3       6 UNK        -0.1936 
     42 C          28.3517    2.6349   -6.0104 C.2       6 UNK         0.5081 
     43 O          29.1948    3.5319   -6.0266 O.2       6 UNK        -0.5248 
     44 N          27.2669    2.6160   -6.7950 N.am      7 UNK        -0.4718 
     45 CA         26.8923    3.7092   -7.6926 C.3       7 UNK         0.0273 
     46 CB         25.4851    4.2172   -7.3316 C.3       7 UNK        -0.1935 
     47 C          26.9606    3.2871   -9.1629 C.2       7 UNK         0.5018 
     48 O          27.5511    4.0179   -9.9586 O.2       7 UNK        -0.5186 
     49 N          26.3504    2.1428   -9.5094 N.am      8 UNK        -0.4240 
     50 CA         26.2446    1.6816  -10.8979 C.3       8 UNK         0.0235 
     51 CB         25.1262    0.6389  -11.0456 C.3       8 UNK        -0.2000 
     52 C          27.5863    1.1795  -11.4542 C.2       8 UNK         0.4941 
     53 O          28.0462    1.7061  -12.4686 O.2       8 UNK        -0.5273 
     54 N          28.2073    0.1996  -10.7796 N.am      9 UNK        -0.4262 
     55 CA         29.5497   -0.2859  -11.1263 C.3       9 UNK         0.0264 
     56 CB         29.7802   -1.6752  -10.5129 C.3       9 UNK        -0.1955 
     57 C          30.6688    0.6771  -10.6881 C.2       9 UNK         0.5031 
     58 O          31.7370    0.6656  -11.3013 O.2       9 UNK        -0.5390 
     59 N          30.4064    1.4712   -9.6381 N.am      10 UNK        -0.4204 
     60 CA         31.3183    2.4073   -8.9689 C.3       10 UNK         0.0237 
     61 CB         31.6887    3.5812   -9.9001 C.3       10 UNK        -0.1985 
     62 C          32.5425    1.6950   -8.3587 C.2       10 UNK         0.4970 
     63 O          33.6778    2.1377   -8.5456 O.2       10 UNK        -0.4914 
     64 N          32.2792    0.5865   -7.6564 N.am      11 UNK        -0.4285 
     65 CA         33.2688   -0.2471   -6.9641 C.3       11 UNK         0.1007 
     66 C          33.9690    0.4981   -5.7941 C.2       11 UNK         0.5703 
     67 N          35.2565    0.2582   -5.5849 N.am      11 UNK        -0.7361 
     68 O          33.3481    1.2615   -5.0566 O.2       11 UNK        -0.4986 
     69 C69        32.6216   -1.5763   -6.4910 C.3       12 UNK        -0.0947 
     70 S70        33.8056   -2.9641   -6.4635 S.3       12 UNK        -0.2240 
     71 C71        34.0153   -3.2669   -4.6731 C.3       12 UNK         0.0194 
     72 H72        27.4257   -4.7148    2.8844 H         1 UNK         0.0906 
     73 H73        26.0954   -5.0855    1.7846 H         1 UNK         0.0906 
     74 H74        27.7652   -5.2480    1.2374 H         1 UNK         0.0906 
     75 H75        28.3887   -3.5574   -0.0862 H         1 UNK         0.3140 
     76 H76        28.0220   -0.8009    0.6068 H         1 UNK         0.1085 
     77 H77        29.0739   -2.0624   -1.9870 H         1 UNK         0.0836 
     78 H78        29.1059   -0.3658   -1.6309 H         1 UNK         0.0836 
     79 H79        32.1353   -3.3682    0.0717 H         1 UNK         0.0731 
     80 H80        30.4643   -3.8442    0.0273 H         1 UNK         0.0731 
     81 H81        33.3090   -2.6916   -2.1166 H         1 UNK         0.1312 
     82 H82        31.8814   -4.7840   -5.5864 H         1 UNK         0.1406 
     83 H83        29.4933   -4.6392   -2.0399 H         1 UNK         0.1631 
     84 H84        28.5991   -5.6780   -3.9400 H         1 UNK         0.0717 
     85 H85        29.7948   -6.5070   -4.9055 H         1 UNK         0.0717 
     86 H86        28.2459   -2.7797   -4.6446 H         1 UNK         0.0934 
     87 H87        29.8543   -2.6032   -5.3061 H         1 UNK         0.0934 
     88 H88        28.7630   -2.2984   -7.6149 H         1 UNK         0.0739 
     89 H89        26.3181   -2.0824   -5.9620 H         1 UNK         0.3093 
     90 H90        24.2841   -1.4216   -8.8049 H         1 UNK         0.0818 
     91 H91        23.0142   -3.3581   -7.9228 H         1 UNK         0.0819 
     92 H92        24.4533   -3.9168   -8.7580 H         1 UNK         0.0819 
     93 H93        24.4178   -3.8992   -7.0005 H         1 UNK         0.0819 
     94 H94        23.6190   -1.7012   -6.0690 H         1 UNK         0.3041 
     95 H95        24.6484    1.4619   -4.8766 H         1 UNK         0.0784 
     96 H96        22.5621    2.0640   -6.1145 H         1 UNK         0.0793 
     97 H97        21.7890    0.5922   -5.5416 H         1 UNK         0.0793 
     98 H98        22.2604    1.8520   -4.3995 H         1 UNK         0.0793 
     99 H99        23.0454   -0.3186   -3.5159 H         1 UNK         0.3024 
    100 H100       23.9668   -1.3759   -1.7192 H         1 UNK         0.1171 
    101 H101       23.2083   -3.1661   -3.3102 H         1 UNK         0.0786 
    102 H102       23.9321   -3.8755   -1.8783 H         1 UNK         0.0786 
    103 H103       24.8427   -3.8099   -3.3875 H         1 UNK         0.0786 
    104 H104       26.2999   -3.0095   -1.5451 H         1 UNK         0.2977 
    105 H105       27.3529   -0.2906   -4.9779 H         1 UNK         0.3127 
    106 H106       29.5865    1.4144   -4.7715 H         1 UNK         0.0770 
    107 H107       26.6987    1.9202   -3.8764 H         1 UNK         0.0814 
    108 H108       28.1279    2.7438   -3.2729 H         1 UNK         0.0814 
    109 H109       27.9056    1.0313   -2.9620 H         1 UNK         0.0814 
    110 H110       26.6288    1.8267   -6.7548 H         1 UNK         0.2983 
    111 H111       27.5772    4.5521   -7.5747 H         1 UNK         0.0947 
    112 H112       25.1965    5.0506   -7.9736 H         1 UNK         0.0806 
    113 H113       25.4474    4.5742   -6.3024 H         1 UNK         0.0806 
    114 H114       24.7250    3.4440   -7.4435 H         1 UNK         0.0806 
    115 H115       25.8726    1.6021   -8.7922 H         1 UNK         0.3000 
    116 H116       25.9503    2.5425  -11.5031 H         1 UNK         0.0850 
    117 H117       24.9770    0.3796  -12.0944 H         1 UNK         0.0810 
    118 H118       24.1767    1.0171  -10.6663 H         1 UNK         0.0810 
    119 H119       25.3536   -0.2831  -10.5184 H         1 UNK         0.0810 
    120 H120       27.7300   -0.2625  -10.0107 H         1 UNK         0.3040 
    121 H121       29.6067   -0.3886  -12.2122 H         1 UNK         0.0766 
    122 H122       30.7085   -2.1119  -10.8832 H         1 UNK         0.0812 
    123 H123       28.9733   -2.3649  -10.7614 H         1 UNK         0.0812 
    124 H124       29.8622   -1.6235   -9.4289 H         1 UNK         0.0812 
    125 H125       29.5186    1.3313   -9.1757 H         1 UNK         0.3205 
    126 H126       30.7623    2.8229   -8.1281 H         1 UNK         0.0754 
    127 H127       32.2679    4.3348   -9.3653 H         1 UNK         0.0769 
    128 H128       30.7960    4.0730  -10.2874 H         1 UNK         0.0769 
    129 H129       32.2875    3.2534  -10.7503 H         1 UNK         0.0769 
    130 H130       31.3036    0.3262   -7.5182 H         1 UNK         0.2981 
    131 H131       34.0272   -0.4808   -7.7142 H         1 UNK         0.0541 
    132 H132       35.7676   -0.3806   -6.1738 H         1 UNK         0.3459 
    133 H133       35.7251    0.7245   -4.8243 H         1 UNK         0.3459 
    134 H134       31.8317   -1.8771   -7.1815 H         1 UNK         0.0612 
    135 H135       32.1311   -1.4606   -5.5227 H         1 UNK         0.0612 
    136 H136       34.7621   -4.0503   -4.5403 H         1 UNK         0.0624 
    137 H137       34.4299   -2.3636   -4.2228 H         1 UNK         0.0624 
@<TRIPOS>BOND
     1    1    2 1    
     2    1   72 1    
     3    1   73 1    
     4    1   74 1    
     5    2    3 2    
     6    2    4 am   BACKBONE|DICT|INTERRES
     7    4    5 1    
     8    4   75 1    
     9    5    6 1    
    10    5   35 1    
    11    5   76 1    
    12    6    7 1    
    13    6   77 1    
    14    6   78 1    
    15    7    8 1    
    16    8    9 1    
    17    8   79 1    
    18    8   80 1    
    19    9   10 ar   
    20    9   14 ar   
    21   10   11 ar   
    22   10   81 1    
    23   11   12 ar   
    24   11   71 1    
    25   12   13 ar   
    26   12   82 1    
    27   13   14 ar   
    28   13   15 1    
    29   14   83 1    
    30   15   16 1    
    31   15   84 1    
    32   15   85 1    
    33   16   17 1    
    34   17   18 1    
    35   17   86 1    
    36   17   87 1    
    37   18   19 1    
    38   18   37 1    
    39   18   88 1    
    40   19   20 am   BACKBONE|DICT|INTERRES
    41   19   89 1    
    42   20   21 2    
    43   20   22 1    
    44   22   23 1    
    45   22   24 1    
    46   22   90 1    
    47   23   91 1    
    48   23   92 1    
    49   23   93 1    
    50   24   25 am   BACKBONE|DICT|INTERRES
    51   24   94 1    
    52   25   26 2    
    53   25   27 1    
    54   27   28 1    
    55   27   29 1    
    56   27   95 1    
    57   28   96 1    
    58   28   97 1    
    59   28   98 1    
    60   29   30 am   BACKBONE|DICT|INTERRES
    61   29   99 1    
    62   30   31 2    
    63   30   32 1    
    64   32   33 1    
    65   32   34 1    
    66   32  100 1    
    67   33  101 1    
    68   33  102 1    
    69   33  103 1    
    70   34   35 am   BACKBONE|DICT|INTERRES
    71   34  104 1    
    72   35   36 2    
    73   37   38 2    
    74   37   39 am   BACKBONE|DICT|INTERRES
    75   39   40 1    
    76   39  105 1    
    77   40   41 1    
    78   40   42 1    
    79   40  106 1    
    80   41  107 1    
    81   41  108 1    
    82   41  109 1    
    83   42   43 2    
    84   42   44 am   BACKBONE|DICT|INTERRES
    85   44   45 1    
    86   44  110 1    
    87   45   46 1    
    88   45   47 1    
    89   45  111 1    
    90   46  112 1    
    91   46  113 1    
    92   46  114 1    
    93   47   48 2    
    94   47   49 am   BACKBONE|DICT|INTERRES
    95   49   50 1    
    96   49  115 1    
    97   50   51 1    
    98   50   52 1    
    99   50  116 1    
   100   51  117 1    
   101   51  118 1    
   102   51  119 1    
   103   52   53 2    
   104   52   54 am   BACKBONE|DICT|INTERRES
   105   54   55 1    
   106   54  120 1    
   107   55   56 1    
   108   55   57 1    
   109   55  121 1    
   110   56  122 1    
   111   56  123 1    
   112   56  124 1    
   113   57   58 2    
   114   57   59 am   BACKBONE|DICT|INTERRES
   115   59   60 1    
   116   59  125 1    
   117   60   61 1    
   118   60   62 1    
   119   60  126 1    
   120   61  127 1    
   121   61  128 1    
   122   61  129 1    
   123   62   63 2    
   124   62   64 am   BACKBONE|DICT|INTERRES
   125   64   65 1    
   126   64  130 1    
   127   65   66 1    
   128   65   69 1    
   129   65  131 1    
   130   66   67 am   BACKBONE|DICT|INTERRES
   131   66   68 2    
   132   67  132 1    
   133   67  133 1    
   134   69   70 1    
   135   69  134 1    
   136   69  135 1    
   137   70   71 1    
   138   71  136 1    
   139   71  137 1    
@<TRIPOS>SUBSTRUCTURE
     1 UNK         1 GROUP             0       ****    0 ROOT    
