@<TRIPOS>MOLECULE
3R137
137   139    1
SMALL
USER_CHARGES


@<TRIPOS>ATOM
      1 CA         27.3429   -7.4633   -0.5946 C.3       0 UNK        -0.2020 
      2 C          27.1636   -6.0785    0.0090 C.2       0 UNK         0.4855 
      3 O          26.4240   -5.9249    0.9812 O.2       0 UNK        -0.5197 
      4 N          27.8361   -5.0698   -0.5601 N.am      1 UNK        -0.4892 
      5 CA         27.7758   -3.6688   -0.1206 C.3       1 UNK         0.0835 
      6 C6         28.9588   -2.8392   -0.6768 C.3       12 UNK        -0.0855 
      7 S7         30.5787   -3.3664   -0.0078 S.3       12 UNK        -0.2931 
      8 C8         31.2384   -4.5077   -1.2721 C.3       12 UNK         0.0378 
      9 C9         31.3183   -3.8692   -2.6511 C.ar      12 UNK        -0.0802 
     10 C10        32.2836   -2.8950   -2.9268 C.ar      12 UNK        -0.0944 
     11 C11        32.3204   -2.2683   -4.1768 C.ar      12 UNK        -0.0787 
     12 C12        31.3910   -2.6325   -5.1549 C.ar      12 UNK        -0.0862 
     13 C13        30.4226   -3.6053   -4.8904 C.ar      12 UNK        -0.0733 
     14 C14        30.4043   -4.2342   -3.6440 C.ar      12 UNK        -0.0832 
     15 C15        29.3642   -3.9471   -5.9296 C.3       12 UNK         0.0240 
     16 S16        27.7329   -3.2837   -5.4542 S.3       12 UNK        -0.2522 
     17 C17        28.0381   -1.4871   -5.5480 C.3       12 UNK        -0.0967 
     18 CA         27.1843   -0.8120   -6.6418 C.3       5 UNK         0.0660 
     19 N          25.7513   -0.8216   -6.3357 N.am      5 UNK        -0.4015 
     20 C          24.7950   -0.4064   -7.1824 C.2       4 UNK         0.4946 
     21 O          25.0291    0.0118   -8.3180 O.2       4 UNK        -0.5353 
     22 CA         23.3399   -0.4122   -6.6807 C.3       4 UNK         0.0277 
     23 CB         22.6252   -1.6926   -7.1402 C.3       4 UNK        -0.1981 
     24 N          23.2084   -0.2788   -5.2273 N.am      4 UNK        -0.4209 
     25 C          23.6353    0.7655   -4.5014 C.2       3 UNK         0.4942 
     26 O          24.1577    1.7690   -4.9868 O.2       3 UNK        -0.5208 
     27 CA         23.5050    0.6490   -2.9715 C.3       3 UNK         0.0250 
     28 CB         22.2018    1.3084   -2.4925 C.3       3 UNK        -0.1990 
     29 N          23.5713   -0.7290   -2.4643 N.am      3 UNK        -0.4232 
     30 C          24.6171   -1.5531   -2.6226 C.2       2 UNK         0.4993 
     31 O          25.6261   -1.2598   -3.2664 O.2       2 UNK        -0.5286 
     32 CA         24.4817   -2.9621   -2.0234 C.3       2 UNK         0.0209 
     33 CB         23.9264   -3.9333   -3.0786 C.3       2 UNK        -0.1931 
     34 N          25.7624   -3.4771   -1.5344 N.am      2 UNK        -0.4546 
     35 C          26.4286   -2.9987   -0.4729 C.2       1 UNK         0.5154 
     36 O          26.0106   -2.0796    0.2340 O.2       1 UNK        -0.5181 
     37 C          27.7155    0.6018   -6.9367 C.2       5 UNK         0.5014 
     38 O          28.5728    0.7347   -7.8061 O.2       5 UNK        -0.5248 
     39 N          27.1751    1.6318   -6.2667 N.am      6 UNK        -0.4434 
     40 CA         27.5419    3.0346   -6.4869 C.3       6 UNK         0.0363 
     41 CB         26.8664    3.9149   -5.4240 C.3       6 UNK        -0.1936 
     42 C          27.2095    3.5435   -7.9025 C.2       6 UNK         0.5081 
     43 O          27.8844    4.4530   -8.3855 O.2       6 UNK        -0.5248 
     44 N          26.1950    2.9468   -8.5429 N.am      7 UNK        -0.4718 
     45 CA         25.8452    3.1967   -9.9392 C.3       7 UNK         0.0273 
     46 CB         24.3262    3.0400  -10.1217 C.3       7 UNK        -0.1935 
     47 C          26.6062    2.2544  -10.8853 C.2       7 UNK         0.5018 
     48 O          27.0769    2.7072  -11.9293 O.2       7 UNK        -0.5186 
     49 N          26.6877    0.9651  -10.5240 N.am      8 UNK        -0.4240 
     50 CA         27.2471   -0.0947  -11.3650 C.3       8 UNK         0.0235 
     51 CB         26.8147   -1.4683  -10.8257 C.3       8 UNK        -0.2000 
     52 C          28.7746   -0.0322  -11.5343 C.2       8 UNK         0.4941 
     53 O          29.2483   -0.0892  -12.6703 O.2       8 UNK        -0.5273 
     54 N          29.5173    0.0521  -10.4227 N.am      9 UNK        -0.4262 
     55 CA         30.9785   -0.0262  -10.3752 C.3       9 UNK         0.0264 
     56 CB         31.4766   -1.4240  -10.8088 C.3       9 UNK        -0.1955 
     57 C          31.4225    0.2987   -8.9458 C.2       9 UNK         0.5031 
     58 O          31.5120   -0.6045   -8.1141 O.2       9 UNK        -0.5390 
     59 N          31.6632    1.5865   -8.6731 N.am      10 UNK        -0.4204 
     60 CA         31.9372    2.1323   -7.3372 C.3       10 UNK         0.0237 
     61 CB         31.6564    3.6461   -7.3644 C.3       10 UNK        -0.1985 
     62 C          33.3445    1.8350   -6.7708 C.2       10 UNK         0.4970 
     63 O          33.6927    2.3989   -5.7327 O.2       10 UNK        -0.4914 
     64 N          34.1291    0.9826   -7.4451 N.am      11 UNK        -0.4285 
     65 CA         35.5078    0.5870   -7.0965 C.3       11 UNK         0.1007 
     66 C          36.5645    1.7269   -7.2386 C.2       11 UNK         0.5703 
     67 N          36.2680    2.8233   -7.9272 N.am      11 UNK        -0.7361 
     68 O          37.6859    1.6062   -6.7500 O.2       11 UNK        -0.4986 
     69 C69        35.6176   -0.1638   -5.7344 C.3       12 UNK        -0.0947 
     70 S70        34.5949   -1.6737   -5.6495 S.3       12 UNK        -0.2240 
     71 C71        33.3219   -1.1581   -4.4573 C.3       12 UNK         0.0194 
     72 H72        27.7376   -8.1500    0.1538 H         1 UNK         0.0906 
     73 H73        26.3837   -7.8494   -0.9386 H         1 UNK         0.0906 
     74 H74        28.0287   -7.4556   -1.4417 H         1 UNK         0.0906 
     75 H75        28.4370   -5.2565   -1.3478 H         1 UNK         0.3140 
     76 H76        27.8450   -3.6596    0.9699 H         1 UNK         0.1085 
     77 H77        28.9629   -2.8475   -1.7669 H         1 UNK         0.0836 
     78 H78        28.8411   -1.7897   -0.3985 H         1 UNK         0.0836 
     79 H79        32.2364   -4.8264   -0.9679 H         1 UNK         0.0731 
     80 H80        30.6303   -5.4127   -1.2954 H         1 UNK         0.0731 
     81 H81        32.9854   -2.6062   -2.1562 H         1 UNK         0.1312 
     82 H82        31.4100   -2.1375   -6.1158 H         1 UNK         0.1406 
     83 H83        29.6489   -4.9802   -3.4406 H         1 UNK         0.1631 
     84 H84        29.2923   -5.0307   -6.0330 H         1 UNK         0.0717 
     85 H85        29.6407   -3.5604   -6.9122 H         1 UNK         0.0717 
     86 H86        27.8493   -1.0430   -4.5697 H         1 UNK         0.0934 
     87 H87        29.0964   -1.3151   -5.7467 H         1 UNK         0.0934 
     88 H88        27.3142   -1.3861   -7.5601 H         1 UNK         0.0739 
     89 H89        25.5005   -1.1229   -5.4003 H         1 UNK         0.3093 
     90 H90        22.8390    0.4446   -7.1363 H         1 UNK         0.0818 
     91 H91        21.5668   -1.6732   -6.8799 H         1 UNK         0.0819 
     92 H92        22.6875   -1.8059   -8.2237 H         1 UNK         0.0819 
     93 H93        23.0665   -2.5848   -6.6938 H         1 UNK         0.0819 
     94 H94        22.7895   -1.0547   -4.7364 H         1 UNK         0.3041 
     95 H95        24.3442    1.1961   -2.5366 H         1 UNK         0.0784 
     96 H96        22.1386    2.3421   -2.8362 H         1 UNK         0.0793 
     97 H97        21.3213    0.7859   -2.8687 H         1 UNK         0.0793 
     98 H98        22.1427    1.3282   -1.4041 H         1 UNK         0.0793 
     99 H99        22.7717   -1.0513   -1.9374 H         1 UNK         0.3024 
    100 H100       23.7905   -2.9220   -1.1783 H         1 UNK         0.1171 
    101 H101       22.9517   -3.6051   -3.4418 H         1 UNK         0.0786 
    102 H102       24.5880   -4.0097   -3.9432 H         1 UNK         0.0786 
    103 H103       23.7953   -4.9344   -2.6671 H         1 UNK         0.0786 
    104 H104       26.1913   -4.2156   -2.0715 H         1 UNK         0.2977 
    105 H105       26.4274    1.4544   -5.6077 H         1 UNK         0.3127 
    106 H106       28.6233    3.1144   -6.3583 H         1 UNK         0.0770 
    107 H107       25.7794    3.8855   -5.5077 H         1 UNK         0.0814 
    108 H108       27.1722    4.9566   -5.5306 H         1 UNK         0.0814 
    109 H109       27.1351    3.6004   -4.4155 H         1 UNK         0.0814 
    110 H110       25.7130    2.1855   -8.0824 H         1 UNK         0.2983 
    111 H111       26.1094    4.2227  -10.2058 H         1 UNK         0.0947 
    112 H112       24.0367    3.2337  -11.1554 H         1 UNK         0.0806 
    113 H113       23.7783    3.7438   -9.4950 H         1 UNK         0.0806 
    114 H114       23.9861    2.0345   -9.8712 H         1 UNK         0.0806 
    115 H115       26.2296    0.6712   -9.6653 H         1 UNK         0.3000 
    116 H116       26.8081    0.0165  -12.3591 H         1 UNK         0.0850 
    117 H117       27.1626   -2.2699  -11.4786 H         1 UNK         0.0810 
    118 H118       25.7291   -1.5477  -10.7643 H         1 UNK         0.0810 
    119 H119       27.2202   -1.6600   -9.8332 H         1 UNK         0.0810 
    120 H120       29.0627    0.1770   -9.5176 H         1 UNK         0.3040 
    121 H121       31.3967    0.7212  -11.0524 H         1 UNK         0.0766 
    122 H122       32.5537   -1.5167  -10.6640 H         1 UNK         0.0812 
    123 H123       31.2807   -1.6156  -11.8634 H         1 UNK         0.0812 
    124 H124       31.0006   -2.2178  -10.2315 H         1 UNK         0.0812 
    125 H125       31.5649    2.2612   -9.4184 H         1 UNK         0.3205 
    126 H126       31.2257    1.6760   -6.6451 H         1 UNK         0.0754 
    127 H127       31.7406    4.0824   -6.3681 H         1 UNK         0.0769 
    128 H128       30.6471    3.8570   -7.7190 H         1 UNK         0.0769 
    129 H129       32.3570    4.1742   -8.0123 H         1 UNK         0.0769 
    130 H130       33.7462    0.5443   -8.2689 H         1 UNK         0.2981 
    131 H131       35.7928   -0.1282   -7.8687 H         1 UNK         0.0541 
    132 H132       35.3594    2.9346   -8.3462 H         1 UNK         0.3459 
    133 H133       36.9621    3.5477   -8.0230 H         1 UNK         0.3459 
    134 H134       35.3725    0.5010   -4.9051 H         1 UNK         0.0612 
    135 H135       36.6466   -0.4828   -5.5613 H         1 UNK         0.0612 
    136 H136       32.7896   -0.2906   -4.8478 H         1 UNK         0.0624 
    137 H137       33.8059   -0.8361   -3.5340 H         1 UNK         0.0624 
@<TRIPOS>BOND
     1    1    2 1    
     2    1   72 1    
     3    1   73 1    
     4    1   74 1    
     5    2    3 2    
     6    2    4 am   BACKBONE|DICT|INTERRES
     7    4    5 1    
     8    4   75 1    
     9    5    6 1    
    10    5   35 1    
    11    5   76 1    
    12    6    7 1    
    13    6   77 1    
    14    6   78 1    
    15    7    8 1    
    16    8    9 1    
    17    8   79 1    
    18    8   80 1    
    19    9   10 ar   
    20    9   14 ar   
    21   10   11 ar   
    22   10   81 1    
    23   11   12 ar   
    24   11   71 1    
    25   12   13 ar   
    26   12   82 1    
    27   13   14 ar   
    28   13   15 1    
    29   14   83 1    
    30   15   16 1    
    31   15   84 1    
    32   15   85 1    
    33   16   17 1    
    34   17   18 1    
    35   17   86 1    
    36   17   87 1    
    37   18   19 1    
    38   18   37 1    
    39   18   88 1    
    40   19   20 am   BACKBONE|DICT|INTERRES
    41   19   89 1    
    42   20   21 2    
    43   20   22 1    
    44   22   23 1    
    45   22   24 1    
    46   22   90 1    
    47   23   91 1    
    48   23   92 1    
    49   23   93 1    
    50   24   25 am   BACKBONE|DICT|INTERRES
    51   24   94 1    
    52   25   26 2    
    53   25   27 1    
    54   27   28 1    
    55   27   29 1    
    56   27   95 1    
    57   28   96 1    
    58   28   97 1    
    59   28   98 1    
    60   29   30 am   BACKBONE|DICT|INTERRES
    61   29   99 1    
    62   30   31 2    
    63   30   32 1    
    64   32   33 1    
    65   32   34 1    
    66   32  100 1    
    67   33  101 1    
    68   33  102 1    
    69   33  103 1    
    70   34   35 am   BACKBONE|DICT|INTERRES
    71   34  104 1    
    72   35   36 2    
    73   37   38 2    
    74   37   39 am   BACKBONE|DICT|INTERRES
    75   39   40 1    
    76   39  105 1    
    77   40   41 1    
    78   40   42 1    
    79   40  106 1    
    80   41  107 1    
    81   41  108 1    
    82   41  109 1    
    83   42   43 2    
    84   42   44 am   BACKBONE|DICT|INTERRES
    85   44   45 1    
    86   44  110 1    
    87   45   46 1    
    88   45   47 1    
    89   45  111 1    
    90   46  112 1    
    91   46  113 1    
    92   46  114 1    
    93   47   48 2    
    94   47   49 am   BACKBONE|DICT|INTERRES
    95   49   50 1    
    96   49  115 1    
    97   50   51 1    
    98   50   52 1    
    99   50  116 1    
   100   51  117 1    
   101   51  118 1    
   102   51  119 1    
   103   52   53 2    
   104   52   54 am   BACKBONE|DICT|INTERRES
   105   54   55 1    
   106   54  120 1    
   107   55   56 1    
   108   55   57 1    
   109   55  121 1    
   110   56  122 1    
   111   56  123 1    
   112   56  124 1    
   113   57   58 2    
   114   57   59 am   BACKBONE|DICT|INTERRES
   115   59   60 1    
   116   59  125 1    
   117   60   61 1    
   118   60   62 1    
   119   60  126 1    
   120   61  127 1    
   121   61  128 1    
   122   61  129 1    
   123   62   63 2    
   124   62   64 am   BACKBONE|DICT|INTERRES
   125   64   65 1    
   126   64  130 1    
   127   65   66 1    
   128   65   69 1    
   129   65  131 1    
   130   66   67 am   BACKBONE|DICT|INTERRES
   131   66   68 2    
   132   67  132 1    
   133   67  133 1    
   134   69   70 1    
   135   69  134 1    
   136   69  135 1    
   137   70   71 1    
   138   71  136 1    
   139   71  137 1    
@<TRIPOS>SUBSTRUCTURE
     1 UNK         1 GROUP             0       ****    0 ROOT    
