@<TRIPOS>MOLECULE
3R137
137   139    1
SMALL
USER_CHARGES


@<TRIPOS>ATOM
      1 CA         23.9144   -5.1194   -1.8358 C.3       0 UNK        -0.2020 
      2 C          24.4746   -3.7775   -1.3908 C.2       0 UNK         0.4855 
      3 O          23.7248   -2.9142   -0.9329 O.2       0 UNK        -0.5197 
      4 N          25.7949   -3.6029   -1.5208 N.am      1 UNK        -0.4892 
      5 CA         26.5447   -2.3906   -1.1781 C.3       1 UNK         0.0835 
      6 C6         28.0582   -2.6449   -1.3304 C.3       12 UNK        -0.0855 
      7 S7         29.1123   -1.4027   -0.5118 S.3       12 UNK        -0.2931 
      8 C8         30.7548   -2.1782   -0.6889 C.3       12 UNK         0.0378 
      9 C9         31.1644   -2.3216   -2.1495 C.ar      12 UNK        -0.0802 
     10 C10        31.9310   -1.3326   -2.7734 C.ar      12 UNK        -0.0944 
     11 C11        32.2960   -1.4661   -4.1166 C.ar      12 UNK        -0.0787 
     12 C12        31.8611   -2.5781   -4.8442 C.ar      12 UNK        -0.0862 
     13 C13        31.0892   -3.5694   -4.2335 C.ar      12 UNK        -0.0733 
     14 C14        30.7750   -3.4500   -2.8785 C.ar      12 UNK        -0.0832 
     15 C15        30.6081   -4.7808   -5.0220 C.3       12 UNK         0.0240 
     16 S16        29.5893   -4.3392   -6.4682 S.3       12 UNK        -0.2522 
     17 C17        28.1494   -3.4875   -5.7346 C.3       12 UNK        -0.0967 
     18 CA         27.6702   -2.3144   -6.6310 C.3       5 UNK         0.0660 
     19 N          26.2093   -2.1378   -6.5972 N.am      5 UNK        -0.4015 
     20 C          25.5242   -1.3409   -7.4284 C.2       4 UNK         0.4946 
     21 O          26.0497   -0.4868   -8.1388 O.2       4 UNK        -0.5353 
     22 CA         24.0045   -1.5431   -7.5452 C.3       4 UNK         0.0277 
     23 CB         23.6635   -2.9170   -8.1578 C.3       4 UNK        -0.1981 
     24 N          23.2460   -1.2880   -6.3184 N.am      4 UNK        -0.4209 
     25 C          23.2455   -1.9874   -5.1783 C.2       3 UNK         0.4942 
     26 O          23.9631   -2.9667   -4.9596 O.2       3 UNK        -0.5208 
     27 CA         22.2795   -1.4837   -4.0938 C.3       3 UNK         0.0250 
     28 CB         21.4135   -2.6172   -3.5206 C.3       3 UNK        -0.1990 
     29 N          23.0488   -0.8477   -3.0291 N.am      3 UNK        -0.4232 
     30 C          23.5807    0.3790   -3.1371 C.2       2 UNK         0.4993 
     31 O          23.3099    1.1555   -4.0524 O.2       2 UNK        -0.5286 
     32 CA         24.6051    0.8142   -2.0745 C.3       2 UNK         0.0209 
     33 CB         23.9368    1.6976   -1.0091 C.3       2 UNK        -0.1931 
     34 N          25.2806   -0.3080   -1.4183 N.am      2 UNK        -0.4546 
     35 C          26.0709   -1.1981   -2.0347 C.2       1 UNK         0.5154 
     36 O          26.3836   -1.1341   -3.2276 O.2       1 UNK        -0.5181 
     37 C          28.4687   -1.0147   -6.3900 C.2       5 UNK         0.5014 
     38 O          29.3080   -0.6472   -7.2198 O.2       5 UNK        -0.5248 
     39 N          28.1662   -0.3167   -5.2872 N.am      6 UNK        -0.4434 
     40 CA         28.7759    0.9748   -4.9632 C.3       6 UNK         0.0363 
     41 CB         28.7257    1.2069   -3.4464 C.3       6 UNK        -0.1936 
     42 C          28.1231    2.1459   -5.7182 C.2       6 UNK         0.5081 
     43 O          28.7787    3.1705   -5.9005 O.2       6 UNK        -0.5248 
     44 N          26.8653    1.9850   -6.1580 N.am      7 UNK        -0.4718 
     45 CA         26.1224    2.9878   -6.9313 C.3       7 UNK         0.0273 
     46 CB         24.6238    2.6500   -6.9353 C.3       7 UNK        -0.1935 
     47 C          26.6534    3.1342   -8.3655 C.2       7 UNK         0.5018 
     48 O          26.8498    4.2578   -8.8292 O.2       7 UNK        -0.5186 
     49 N          26.9135    1.9970   -9.0251 N.am      8 UNK        -0.4240 
     50 CA         27.5911    1.9188  -10.3220 C.3       8 UNK         0.0235 
     51 CB         27.3189    0.5408  -10.9479 C.3       8 UNK        -0.2000 
     52 C          29.1072    2.1630  -10.2136 C.2       8 UNK         0.4941 
     53 O          29.7444    2.4120  -11.2375 O.2       8 UNK        -0.5273 
     54 N          29.6438    2.0797   -8.9860 N.am      9 UNK        -0.4262 
     55 CA         31.0469    2.2258   -8.5981 C.3       9 UNK         0.0264 
     56 CB         31.5474    3.6636   -8.8504 C.3       9 UNK        -0.1955 
     57 C          31.9259    1.1507   -9.2544 C.2       9 UNK         0.5031 
     58 O          32.9021    1.4749   -9.9346 O.2       9 UNK        -0.5390 
     59 N          31.5723   -0.1224   -9.0183 N.am      10 UNK        -0.4204 
     60 CA         32.2642   -1.3041   -9.5552 C.3       10 UNK         0.0237 
     61 CB         31.4766   -2.5635   -9.1658 C.3       10 UNK        -0.1985 
     62 C          33.7451   -1.4331   -9.1377 C.2       10 UNK         0.4970 
     63 O          34.4957   -2.1573   -9.7922 O.2       10 UNK        -0.4914 
     64 N          34.1379   -0.7125   -8.0809 N.am      11 UNK        -0.4285 
     65 CA         35.5246   -0.5035   -7.6440 C.3       11 UNK         0.1007 
     66 C          36.3755    0.3707   -8.6130 C.2       11 UNK         0.5703 
     67 N          35.7877    1.1098   -9.5480 N.am      11 UNK        -0.7361 
     68 O          37.6004    0.3718   -8.5155 O.2       11 UNK        -0.4986 
     69 C69        35.5729    0.0741   -6.2039 C.3       12 UNK        -0.0947 
     70 S70        34.8693   -1.0709   -4.9746 S.3       12 UNK        -0.2240 
     71 C71        33.1767   -0.4276   -4.7883 C.3       12 UNK         0.0194 
     72 H72        22.9737   -5.3294   -1.3272 H         1 UNK         0.0906 
     73 H73        24.6062   -5.9310   -1.6109 H         1 UNK         0.0906 
     74 H74        23.7298   -5.1124   -2.9100 H         1 UNK         0.0906 
     75 H75        26.3395   -4.3456   -1.9349 H         1 UNK         0.3140 
     76 H76        26.3419   -2.1735   -0.1270 H         1 UNK         0.1085 
     77 H77        28.3169   -2.6964   -2.3874 H         1 UNK         0.0836 
     78 H78        28.3128   -3.6153   -0.9009 H         1 UNK         0.0836 
     79 H79        31.4887   -1.5740   -0.1533 H         1 UNK         0.0731 
     80 H80        30.7520   -3.1538   -0.2002 H         1 UNK         0.0731 
     81 H81        32.2510   -0.4661   -2.2109 H         1 UNK         0.1312 
     82 H82        32.1367   -2.6784   -5.8841 H         1 UNK         0.1406 
     83 H83        30.2000   -4.2267   -2.3937 H         1 UNK         0.1631 
     84 H84        30.0358   -5.4597   -4.3879 H         1 UNK         0.0717 
     85 H85        31.4774   -5.3427   -5.3660 H         1 UNK         0.0717 
     86 H86        27.3625   -4.2367   -5.6333 H         1 UNK         0.0934 
     87 H87        28.3685   -3.1520   -4.7203 H         1 UNK         0.0934 
     88 H88        27.8753   -2.5929   -7.6676 H         1 UNK         0.0739 
     89 H89        25.6727   -2.7381   -5.9780 H         1 UNK         0.3093 
     90 H90        23.6543   -0.7911   -8.2547 H         1 UNK         0.0818 
     91 H91        24.1745   -3.0539   -9.1119 H         1 UNK         0.0819 
     92 H92        23.9594   -3.7446   -7.5127 H         1 UNK         0.0819 
     93 H93        22.5944   -3.0097   -8.3487 H         1 UNK         0.0819 
     94 H94        22.6632   -0.4620   -6.3476 H         1 UNK         0.3041 
     95 H95        21.6001   -0.7470   -4.5288 H         1 UNK         0.0784 
     96 H96        20.8044   -3.0721   -4.3026 H         1 UNK         0.0793 
     97 H97        22.0145   -3.4092   -3.0786 H         1 UNK         0.0793 
     98 H98        20.7341   -2.2469   -2.7528 H         1 UNK         0.0793 
     99 H99        23.3401   -1.4445   -2.2604 H         1 UNK         0.3024 
    100 H100       25.3626    1.4082   -2.5893 H         1 UNK         0.1171 
    101 H101       24.6674    2.0857   -0.2991 H         1 UNK         0.0786 
    102 H102       23.4453    2.5571   -1.4676 H         1 UNK         0.0786 
    103 H103       23.1786    1.1498   -0.4478 H         1 UNK         0.0786 
    104 H104       25.0448   -0.4664   -0.4488 H         1 UNK         0.2977 
    105 H105       27.4707   -0.6768   -4.6332 H         1 UNK         0.3127 
    106 H106       29.8289    0.9453   -5.2530 H         1 UNK         0.0770 
    107 H107       27.7026    1.2772   -3.0796 H         1 UNK         0.0814 
    108 H108       29.2219    0.3985   -2.9099 H         1 UNK         0.0814 
    109 H109       29.2331    2.1339   -3.1767 H         1 UNK         0.0814 
    110 H110       26.4091    1.0993   -5.9945 H         1 UNK         0.2983 
    111 H111       26.2462    3.9550   -6.4385 H         1 UNK         0.0947 
    112 H112       24.4286    1.6541   -7.3327 H         1 UNK         0.0806 
    113 H113       24.0645    3.3603   -7.5459 H         1 UNK         0.0806 
    114 H114       24.2096    2.7004   -5.9296 H         1 UNK         0.0806 
    115 H115       26.6646    1.1056   -8.5933 H         1 UNK         0.3000 
    116 H116       27.1767    2.6864  -10.9791 H         1 UNK         0.0850 
    117 H117       27.7640    0.4666  -11.9409 H         1 UNK         0.0810 
    118 H118       26.2497    0.3578  -11.0560 H         1 UNK         0.0810 
    119 H119       27.7362   -0.2648  -10.3416 H         1 UNK         0.0810 
    120 H120       29.0125    1.8420   -8.2339 H         1 UNK         0.3040 
    121 H121       31.0888    2.0485   -7.5222 H         1 UNK         0.0766 
    122 H122       31.5633    3.9100   -9.9125 H         1 UNK         0.0812 
    123 H123       32.5622    3.7940   -8.4727 H         1 UNK         0.0812 
    124 H124       30.9162    4.3949   -8.3453 H         1 UNK         0.0812 
    125 H125       30.7524   -0.3003   -8.4389 H         1 UNK         0.3205 
    126 H126       32.2506   -1.2181  -10.6435 H         1 UNK         0.0754 
    127 H127       31.9411   -3.4628   -9.5725 H         1 UNK         0.0769 
    128 H128       30.4543   -2.5269   -9.5432 H         1 UNK         0.0769 
    129 H129       31.4268   -2.6806   -8.0845 H         1 UNK         0.0769 
    130 H130       33.4452   -0.1456   -7.6208 H         1 UNK         0.2981 
    131 H131       36.0069   -1.4828   -7.6272 H         1 UNK         0.0541 
    132 H132       34.7765    1.1381   -9.6446 H         1 UNK         0.3459 
    133 H133       36.3606    1.6629  -10.1647 H         1 UNK         0.3459 
    134 H134       35.0596    1.0360   -6.1501 H         1 UNK         0.0612 
    135 H135       36.6049    0.2641   -5.9026 H         1 UNK         0.0612 
    136 H136       33.2028    0.4977   -4.2108 H         1 UNK         0.0624 
    137 H137       32.7529   -0.1765   -5.7605 H         1 UNK         0.0624 
@<TRIPOS>BOND
     1    1    2 1    
     2    1   72 1    
     3    1   73 1    
     4    1   74 1    
     5    2    3 2    
     6    2    4 am   BACKBONE|DICT|INTERRES
     7    4    5 1    
     8    4   75 1    
     9    5    6 1    
    10    5   35 1    
    11    5   76 1    
    12    6    7 1    
    13    6   77 1    
    14    6   78 1    
    15    7    8 1    
    16    8    9 1    
    17    8   79 1    
    18    8   80 1    
    19    9   10 ar   
    20    9   14 ar   
    21   10   11 ar   
    22   10   81 1    
    23   11   12 ar   
    24   11   71 1    
    25   12   13 ar   
    26   12   82 1    
    27   13   14 ar   
    28   13   15 1    
    29   14   83 1    
    30   15   16 1    
    31   15   84 1    
    32   15   85 1    
    33   16   17 1    
    34   17   18 1    
    35   17   86 1    
    36   17   87 1    
    37   18   19 1    
    38   18   37 1    
    39   18   88 1    
    40   19   20 am   BACKBONE|DICT|INTERRES
    41   19   89 1    
    42   20   21 2    
    43   20   22 1    
    44   22   23 1    
    45   22   24 1    
    46   22   90 1    
    47   23   91 1    
    48   23   92 1    
    49   23   93 1    
    50   24   25 am   BACKBONE|DICT|INTERRES
    51   24   94 1    
    52   25   26 2    
    53   25   27 1    
    54   27   28 1    
    55   27   29 1    
    56   27   95 1    
    57   28   96 1    
    58   28   97 1    
    59   28   98 1    
    60   29   30 am   BACKBONE|DICT|INTERRES
    61   29   99 1    
    62   30   31 2    
    63   30   32 1    
    64   32   33 1    
    65   32   34 1    
    66   32  100 1    
    67   33  101 1    
    68   33  102 1    
    69   33  103 1    
    70   34   35 am   BACKBONE|DICT|INTERRES
    71   34  104 1    
    72   35   36 2    
    73   37   38 2    
    74   37   39 am   BACKBONE|DICT|INTERRES
    75   39   40 1    
    76   39  105 1    
    77   40   41 1    
    78   40   42 1    
    79   40  106 1    
    80   41  107 1    
    81   41  108 1    
    82   41  109 1    
    83   42   43 2    
    84   42   44 am   BACKBONE|DICT|INTERRES
    85   44   45 1    
    86   44  110 1    
    87   45   46 1    
    88   45   47 1    
    89   45  111 1    
    90   46  112 1    
    91   46  113 1    
    92   46  114 1    
    93   47   48 2    
    94   47   49 am   BACKBONE|DICT|INTERRES
    95   49   50 1    
    96   49  115 1    
    97   50   51 1    
    98   50   52 1    
    99   50  116 1    
   100   51  117 1    
   101   51  118 1    
   102   51  119 1    
   103   52   53 2    
   104   52   54 am   BACKBONE|DICT|INTERRES
   105   54   55 1    
   106   54  120 1    
   107   55   56 1    
   108   55   57 1    
   109   55  121 1    
   110   56  122 1    
   111   56  123 1    
   112   56  124 1    
   113   57   58 2    
   114   57   59 am   BACKBONE|DICT|INTERRES
   115   59   60 1    
   116   59  125 1    
   117   60   61 1    
   118   60   62 1    
   119   60  126 1    
   120   61  127 1    
   121   61  128 1    
   122   61  129 1    
   123   62   63 2    
   124   62   64 am   BACKBONE|DICT|INTERRES
   125   64   65 1    
   126   64  130 1    
   127   65   66 1    
   128   65   69 1    
   129   65  131 1    
   130   66   67 am   BACKBONE|DICT|INTERRES
   131   66   68 2    
   132   67  132 1    
   133   67  133 1    
   134   69   70 1    
   135   69  134 1    
   136   69  135 1    
   137   70   71 1    
   138   71  136 1    
   139   71  137 1    
@<TRIPOS>SUBSTRUCTURE
     1 UNK         1 GROUP             0       ****    0 ROOT    
