@<TRIPOS>MOLECULE
3R137
137   139    1
SMALL
USER_CHARGES


@<TRIPOS>ATOM
      1 CA         25.6971   -5.5426   -2.9756 C.3       0 UNK        -0.2020 
      2 C          26.1210   -4.9001   -1.6645 C.2       0 UNK         0.4855 
      3 O          25.2731   -4.6394   -0.8119 O.2       0 UNK        -0.5197 
      4 N          27.4272   -4.6669   -1.4859 N.am      1 UNK        -0.4892 
      5 CA         28.0244   -4.1604   -0.2439 C.3       1 UNK         0.0835 
      6 C6         29.5512   -4.4460   -0.1179 C.3       12 UNK        -0.0855 
      7 S7         30.0933   -5.9960   -0.9269 S.3       12 UNK        -0.2931 
      8 C8         31.1861   -5.3868   -2.2581 C.3       12 UNK         0.0378 
      9 C9         30.5472   -4.3063   -3.1268 C.ar      12 UNK        -0.0802 
     10 C10        31.0013   -2.9848   -3.0391 C.ar      12 UNK        -0.0944 
     11 C11        30.4550   -1.9892   -3.8528 C.ar      12 UNK        -0.0787 
     12 C12        29.4354   -2.3185   -4.7472 C.ar      12 UNK        -0.0862 
     13 C13        28.9846   -3.6351   -4.8606 C.ar      12 UNK        -0.0733 
     14 C14        29.5431   -4.6288   -4.0480 C.ar      12 UNK        -0.0832 
     15 C15        27.9516   -3.9739   -5.9223 C.3       12 UNK         0.0240 
     16 S16        26.3319   -3.2241   -5.5608 S.3       12 UNK        -0.2522 
     17 C17        25.6735   -3.0125   -7.2558 C.3       12 UNK        -0.0967 
     18 CA         25.4316   -1.5344   -7.6513 C.3       5 UNK         0.0660 
     19 N          24.3768   -0.9333   -6.8321 N.am      5 UNK        -0.4015 
     20 C          23.8438    0.2859   -6.9946 C.2       4 UNK         0.4946 
     21 O          24.1088    1.0229   -7.9449 O.2       4 UNK        -0.5353 
     22 CA         22.9099    0.7980   -5.8772 C.3       4 UNK         0.0277 
     23 CB         21.4405    0.6653   -6.3083 C.3       4 UNK        -0.1981 
     24 N          23.0908    0.1519   -4.5657 N.am      4 UNK        -0.4209 
     25 C          24.2466    0.0710   -3.8884 C.2       3 UNK         0.4942 
     26 O          25.3056    0.5357   -4.3165 O.2       3 UNK        -0.5208 
     27 CA         24.2240   -0.7030   -2.5548 C.3       3 UNK         0.0250 
     28 CB         23.5030   -2.0581   -2.6898 C.3       3 UNK        -0.1990 
     29 N          25.5889   -0.9523   -2.0903 N.am      3 UNK        -0.4232 
     30 C          26.3477   -0.0826   -1.4109 C.2       2 UNK         0.4993 
     31 O          25.9240    0.9680   -0.9246 O.2       2 UNK        -0.5286 
     32 CA         27.8390   -0.4496   -1.2915 C.3       2 UNK         0.0209 
     33 CB         28.5942    0.3658   -0.2200 C.3       2 UNK        -0.1931 
     34 N          28.0603   -1.8927   -1.1327 N.am      2 UNK        -0.4546 
     35 C          27.7316   -2.6584   -0.0795 C.2       1 UNK         0.5154 
     36 O          27.2148   -2.2418    0.9580 O.2       1 UNK        -0.5181 
     37 C          26.7442   -0.7128   -7.6778 C.2       5 UNK         0.5014 
     38 O          27.4972   -0.8278   -8.6451 O.2       5 UNK        -0.5248 
     39 N          26.9807    0.1380   -6.6645 N.am      6 UNK        -0.4434 
     40 CA         28.0995    1.0851   -6.5873 C.3       6 UNK         0.0363 
     41 CB         28.1018    1.7461   -5.2002 C.3       6 UNK        -0.1936 
     42 C          28.0982    2.1626   -7.6898 C.2       6 UNK         0.5081 
     43 O          29.1202    2.8197   -7.8793 O.2       6 UNK        -0.5248 
     44 N          26.9735    2.3338   -8.4011 N.am      7 UNK        -0.4718 
     45 CA         26.8885    3.1602   -9.6070 C.3       7 UNK         0.0273 
     46 CB         25.4163    3.5096   -9.8764 C.3       7 UNK        -0.1935 
     47 C          27.5131    2.4799  -10.8413 C.2       7 UNK         0.5018 
     48 O          27.8907    3.1843  -11.7786 O.2       7 UNK        -0.5186 
     49 N          27.5949    1.1413  -10.8342 N.am      8 UNK        -0.4240 
     50 CA         28.1607    0.3290  -11.9124 C.3       8 UNK         0.0235 
     51 CB         27.2294   -0.8624  -12.1945 C.3       8 UNK        -0.2000 
     52 C          29.5728   -0.1607  -11.5606 C.2       8 UNK         0.4941 
     53 O          30.4553   -0.1169  -12.4192 O.2       8 UNK        -0.5273 
     54 N          29.7641   -0.6235  -10.3174 N.am      9 UNK        -0.4262 
     55 CA         31.0501   -1.0669   -9.7766 C.3       9 UNK         0.0264 
     56 CB         30.7994   -1.8231   -8.4614 C.3       9 UNK        -0.1955 
     57 C          32.0140    0.1119   -9.5545 C.2       9 UNK         0.5031 
     58 O          31.5713    1.2314   -9.2891 O.2       9 UNK        -0.5390 
     59 N          33.3232   -0.1605   -9.6266 N.am      10 UNK        -0.4204 
     60 CA         34.4051    0.8202   -9.4664 C.3       10 UNK         0.0237 
     61 CB         35.6668    0.2863  -10.1719 C.3       10 UNK        -0.1985 
     62 C          34.6632    1.1966   -7.9908 C.2       10 UNK         0.4970 
     63 O          35.8002    1.1139   -7.5223 O.2       10 UNK        -0.4914 
     64 N          33.6000    1.5897   -7.2832 N.am      11 UNK        -0.4285 
     65 CA         33.6077    1.9544   -5.8570 C.3       11 UNK         0.1007 
     66 C          33.9703    3.4420   -5.5844 C.2       11 UNK         0.5703 
     67 N          34.1382    4.2857   -6.5960 N.am      11 UNK        -0.7361 
     68 O          34.1185    3.8364   -4.4303 O.2       11 UNK        -0.4986 
     69 C69        32.2759    1.5574   -5.1679 C.3       12 UNK        -0.0947 
     70 S70        31.9495   -0.2273   -5.3207 S.3       12 UNK        -0.2240 
     71 C71        30.9955   -0.5688   -3.8154 C.3       12 UNK         0.0194 
     72 H72        25.2740   -6.5289   -2.7878 H         1 UNK         0.0906 
     73 H73        24.9360   -4.9365   -3.4649 H         1 UNK         0.0906 
     74 H74        26.5340   -5.6595   -3.6630 H         1 UNK         0.0906 
     75 H75        28.0906   -4.9218   -2.2039 H         1 UNK         0.3140 
     76 H76        27.5305   -4.6782    0.5822 H         1 UNK         0.1085 
     77 H77        30.1539   -3.6217   -0.4999 H         1 UNK         0.0836 
     78 H78        29.8165   -4.5120    0.9387 H         1 UNK         0.0836 
     79 H79        31.4753   -6.2292   -2.8881 H         1 UNK         0.0731 
     80 H80        32.1096   -5.0187   -1.8082 H         1 UNK         0.0731 
     81 H81        31.7982   -2.7340   -2.3521 H         1 UNK         0.1312 
     82 H82        29.0208   -1.5555   -5.3910 H         1 UNK         0.1406 
     83 H83        29.2181   -5.6561   -4.1477 H         1 UNK         0.1631 
     84 H84        27.8306   -5.0530   -6.0270 H         1 UNK         0.0717 
     85 H85        28.3267   -3.6101   -6.8800 H         1 UNK         0.0717 
     86 H86        26.3329   -3.4890   -7.9834 H         1 UNK         0.0934 
     87 H87        24.7363   -3.5675   -7.3218 H         1 UNK         0.0934 
     88 H88        25.0570   -1.5307   -8.6771 H         1 UNK         0.0739 
     89 H89        24.1126   -1.4569   -6.0114 H         1 UNK         0.3093 
     90 H90        23.1327    1.8587   -5.7446 H         1 UNK         0.0818 
     91 H91        20.7695    1.1291   -5.5849 H         1 UNK         0.0819 
     92 H92        21.2684    1.1583   -7.2664 H         1 UNK         0.0819 
     93 H93        21.1452   -0.3785   -6.4218 H         1 UNK         0.0819 
     94 H94        22.2643   -0.2556   -4.1522 H         1 UNK         0.3041 
     95 H95        23.6959   -0.0936   -1.8186 H         1 UNK         0.0784 
     96 H96        23.9294   -2.6660   -3.4885 H         1 UNK         0.0793 
     97 H97        23.5694   -2.6321   -1.7652 H         1 UNK         0.0793 
     98 H98        22.4412   -1.9314   -2.9024 H         1 UNK         0.0793 
     99 H99        26.0393   -1.7746   -2.4627 H         1 UNK         0.3024 
    100 H100       28.2737   -0.1861   -2.2557 H         1 UNK         0.1171 
    101 H101       28.5519    1.4328   -0.4422 H         1 UNK         0.0786 
    102 H102       29.6469    0.0866   -0.1782 H         1 UNK         0.0786 
    103 H103       28.1684    0.2269    0.7739 H         1 UNK         0.0786 
    104 H104       28.4753   -2.3589   -1.9286 H         1 UNK         0.2977 
    105 H105       26.3125    0.1842   -5.8976 H         1 UNK         0.3127 
    106 H106       29.0245    0.5172   -6.6970 H         1 UNK         0.0770 
    107 H107       28.9883    2.3659   -5.0619 H         1 UNK         0.0814 
    108 H108       28.0938    1.0026   -4.4049 H         1 UNK         0.0814 
    109 H109       27.2301    2.3868   -5.0611 H         1 UNK         0.0814 
    110 H110       26.1496    1.7936   -8.1604 H         1 UNK         0.2983 
    111 H111       27.4332    4.0911   -9.4332 H         1 UNK         0.0947 
    112 H112       25.3238    4.1702  -10.7394 H         1 UNK         0.0806 
    113 H113       24.9670    4.0223   -9.0258 H         1 UNK         0.0806 
    114 H114       24.8213    2.6190  -10.0827 H         1 UNK         0.0806 
    115 H115       27.3151    0.6422   -9.9972 H         1 UNK         0.3000 
    116 H116       28.2336    0.9192  -12.8285 H         1 UNK         0.0850 
    117 H117       27.6247   -1.4836  -12.9992 H         1 UNK         0.0810 
    118 H118       26.2397   -0.5251  -12.5023 H         1 UNK         0.0810 
    119 H119       27.1071   -1.5013  -11.3190 H         1 UNK         0.0810 
    120 H120       28.9744   -0.6410   -9.6754 H         1 UNK         0.3040 
    121 H121       31.5014   -1.7546  -10.4948 H         1 UNK         0.0766 
    122 H122       31.7329   -2.1755   -8.0208 H         1 UNK         0.0812 
    123 H123       30.1656   -2.6955   -8.6198 H         1 UNK         0.0812 
    124 H124       30.3109   -1.1892   -7.7220 H         1 UNK         0.0812 
    125 H125       33.6087   -1.1139   -9.7992 H         1 UNK         0.3205 
    126 H126       34.1118    1.7404   -9.9765 H         1 UNK         0.0754 
    127 H127       36.4784    1.0140  -10.1284 H         1 UNK         0.0769 
    128 H128       35.4764    0.0832  -11.2259 H         1 UNK         0.0769 
    129 H129       36.0283   -0.6342   -9.7118 H         1 UNK         0.0769 
    130 H130       32.7024    1.6261   -7.7583 H         1 UNK         0.2981 
    131 H131       34.3967    1.3786   -5.3705 H         1 UNK         0.0541 
    132 H132       34.3796    5.2448   -6.4045 H         1 UNK         0.3459 
    133 H133       34.0190    3.9734   -7.5458 H         1 UNK         0.3459 
    134 H134       31.4382    2.1020   -5.6060 H         1 UNK         0.0612 
    135 H135       32.2988    1.8163   -4.1078 H         1 UNK         0.0612 
    136 H136       31.6286   -0.4134   -2.9419 H         1 UNK         0.0624 
    137 H137       30.1737    0.1401   -3.7381 H         1 UNK         0.0624 
@<TRIPOS>BOND
     1    1    2 1    
     2    1   72 1    
     3    1   73 1    
     4    1   74 1    
     5    2    3 2    
     6    2    4 am   BACKBONE|DICT|INTERRES
     7    4    5 1    
     8    4   75 1    
     9    5    6 1    
    10    5   35 1    
    11    5   76 1    
    12    6    7 1    
    13    6   77 1    
    14    6   78 1    
    15    7    8 1    
    16    8    9 1    
    17    8   79 1    
    18    8   80 1    
    19    9   10 ar   
    20    9   14 ar   
    21   10   11 ar   
    22   10   81 1    
    23   11   12 ar   
    24   11   71 1    
    25   12   13 ar   
    26   12   82 1    
    27   13   14 ar   
    28   13   15 1    
    29   14   83 1    
    30   15   16 1    
    31   15   84 1    
    32   15   85 1    
    33   16   17 1    
    34   17   18 1    
    35   17   86 1    
    36   17   87 1    
    37   18   19 1    
    38   18   37 1    
    39   18   88 1    
    40   19   20 am   BACKBONE|DICT|INTERRES
    41   19   89 1    
    42   20   21 2    
    43   20   22 1    
    44   22   23 1    
    45   22   24 1    
    46   22   90 1    
    47   23   91 1    
    48   23   92 1    
    49   23   93 1    
    50   24   25 am   BACKBONE|DICT|INTERRES
    51   24   94 1    
    52   25   26 2    
    53   25   27 1    
    54   27   28 1    
    55   27   29 1    
    56   27   95 1    
    57   28   96 1    
    58   28   97 1    
    59   28   98 1    
    60   29   30 am   BACKBONE|DICT|INTERRES
    61   29   99 1    
    62   30   31 2    
    63   30   32 1    
    64   32   33 1    
    65   32   34 1    
    66   32  100 1    
    67   33  101 1    
    68   33  102 1    
    69   33  103 1    
    70   34   35 am   BACKBONE|DICT|INTERRES
    71   34  104 1    
    72   35   36 2    
    73   37   38 2    
    74   37   39 am   BACKBONE|DICT|INTERRES
    75   39   40 1    
    76   39  105 1    
    77   40   41 1    
    78   40   42 1    
    79   40  106 1    
    80   41  107 1    
    81   41  108 1    
    82   41  109 1    
    83   42   43 2    
    84   42   44 am   BACKBONE|DICT|INTERRES
    85   44   45 1    
    86   44  110 1    
    87   45   46 1    
    88   45   47 1    
    89   45  111 1    
    90   46  112 1    
    91   46  113 1    
    92   46  114 1    
    93   47   48 2    
    94   47   49 am   BACKBONE|DICT|INTERRES
    95   49   50 1    
    96   49  115 1    
    97   50   51 1    
    98   50   52 1    
    99   50  116 1    
   100   51  117 1    
   101   51  118 1    
   102   51  119 1    
   103   52   53 2    
   104   52   54 am   BACKBONE|DICT|INTERRES
   105   54   55 1    
   106   54  120 1    
   107   55   56 1    
   108   55   57 1    
   109   55  121 1    
   110   56  122 1    
   111   56  123 1    
   112   56  124 1    
   113   57   58 2    
   114   57   59 am   BACKBONE|DICT|INTERRES
   115   59   60 1    
   116   59  125 1    
   117   60   61 1    
   118   60   62 1    
   119   60  126 1    
   120   61  127 1    
   121   61  128 1    
   122   61  129 1    
   123   62   63 2    
   124   62   64 am   BACKBONE|DICT|INTERRES
   125   64   65 1    
   126   64  130 1    
   127   65   66 1    
   128   65   69 1    
   129   65  131 1    
   130   66   67 am   BACKBONE|DICT|INTERRES
   131   66   68 2    
   132   67  132 1    
   133   67  133 1    
   134   69   70 1    
   135   69  134 1    
   136   69  135 1    
   137   70   71 1    
   138   71  136 1    
   139   71  137 1    
@<TRIPOS>SUBSTRUCTURE
     1 UNK         1 GROUP             0       ****    0 ROOT    
