@<TRIPOS>MOLECULE
3R137
137   139    1
SMALL
USER_CHARGES


@<TRIPOS>ATOM
      1 CA         26.7586    2.3204   -1.8846 C.3       0 UNK        -0.2020 
      2 C          26.8854    0.9056   -2.4253 C.2       0 UNK         0.4855 
      3 O          26.6800    0.6898   -3.6194 O.2       0 UNK        -0.5197 
      4 N          27.2447   -0.0567   -1.5666 N.am      1 UNK        -0.4892 
      5 CA         27.3620   -1.4791   -1.9030 C.3       1 UNK         0.0835 
      6 C6         28.2128   -2.2579   -0.8711 C.3       12 UNK        -0.0855 
      7 S7         29.9571   -1.7227   -0.9133 S.3       12 UNK        -0.2931 
      8 C8         30.8242   -3.2570   -1.3707 C.3       12 UNK         0.0378 
      9 C9         30.8310   -3.5190   -2.8729 C.ar      12 UNK        -0.0802 
     10 C10        31.9415   -3.1502   -3.6407 C.ar      12 UNK        -0.0944 
     11 C11        32.0201   -3.5013   -4.9919 C.ar      12 UNK        -0.0787 
     12 C12        30.9583   -4.1915   -5.5858 C.ar      12 UNK        -0.0862 
     13 C13        29.8368   -4.5571   -4.8343 C.ar      12 UNK        -0.0733 
     14 C14        29.7787   -4.2148   -3.4787 C.ar      12 UNK        -0.0832 
     15 C15        28.7364   -5.4080   -5.4610 C.3       12 UNK         0.0240 
     16 S16        27.8105   -4.5475   -6.7723 S.3       12 UNK        -0.2522 
     17 C17        26.8660   -3.3204   -5.8096 C.3       12 UNK        -0.0967 
     18 CA         26.7014   -1.9707   -6.5491 C.3       5 UNK         0.0660 
     19 N          25.6691   -1.1311   -5.9352 N.am      5 UNK        -0.4015 
     20 C          25.1705   -0.0155   -6.4890 C.2       4 UNK         0.4946 
     21 O          25.5476    0.4134   -7.5803 O.2       4 UNK        -0.5353 
     22 CA         24.1212    0.8000   -5.7055 C.3       4 UNK         0.0277 
     23 CB         22.9861    1.3099   -6.6186 C.3       4 UNK        -0.1981 
     24 N          23.5836    0.1445   -4.5069 N.am      4 UNK        -0.4209 
     25 C          22.8227   -0.9566   -4.4339 C.2       3 UNK         0.4942 
     26 O          22.4270   -1.6064   -5.4044 O.2       3 UNK        -0.5208 
     27 CA         22.4452   -1.4071   -3.0183 C.3       3 UNK         0.0250 
     28 CB         21.0050   -0.9956   -2.6730 C.3       3 UNK        -0.1990 
     29 N          22.5693   -2.8635   -2.9470 N.am      3 UNK        -0.4232 
     30 C          23.2557   -3.5940   -2.0551 C.2       2 UNK         0.4993 
     31 O          23.3928   -4.8096   -2.1963 O.2       2 UNK        -0.5286 
     32 CA         23.8998   -2.9086   -0.8223 C.3       2 UNK         0.0209 
     33 CB         23.8892   -3.8519    0.3965 C.3       2 UNK        -0.1931 
     34 N          25.2791   -2.4101   -0.9922 N.am      2 UNK        -0.4546 
     35 C          25.9574   -2.0776   -2.1048 C.2       1 UNK         0.5154 
     36 O          25.5279   -2.1719   -3.2521 O.2       1 UNK        -0.5181 
     37 C          28.0406   -1.2224   -6.6772 C.2       5 UNK         0.5014 
     38 O          28.6438   -1.2477   -7.7507 O.2       5 UNK        -0.5248 
     39 N          28.4570   -0.5275   -5.6076 N.am      6 UNK        -0.4434 
     40 CA         29.7017    0.2421   -5.5907 C.3       6 UNK         0.0363 
     41 CB         30.0825    0.6179   -4.1515 C.3       6 UNK        -0.1936 
     42 C          29.6194    1.4947   -6.4713 C.2       6 UNK         0.5081 
     43 O          30.6385    1.9011   -7.0256 O.2       6 UNK        -0.5248 
     44 N          28.4145    2.0647   -6.6093 N.am      7 UNK        -0.4718 
     45 CA         28.1287    3.1675   -7.5255 C.3       7 UNK         0.0273 
     46 CB         26.7647    3.7897   -7.1839 C.3       7 UNK        -0.1935 
     47 C          28.1847    2.7158   -8.9940 C.2       7 UNK         0.5018 
     48 O          28.8362    3.3781   -9.8015 O.2       7 UNK        -0.5186 
     49 N          27.5254    1.5899   -9.3064 N.am      8 UNK        -0.4240 
     50 CA         27.4721    0.9977  -10.6449 C.3       8 UNK         0.0235 
     51 CB         26.4289   -0.1314  -10.6706 C.3       8 UNK        -0.2000 
     52 C          28.8346    0.4863  -11.1382 C.2       8 UNK         0.4941 
     53 O          29.2068    0.7699  -12.2775 O.2       8 UNK        -0.5273 
     54 N          29.5541   -0.2507  -10.2808 N.am      9 UNK        -0.4262 
     55 CA         30.8665   -0.8244  -10.5936 C.3       9 UNK         0.0264 
     56 CB         31.0696   -2.0936   -9.7510 C.3       9 UNK        -0.1955 
     57 C          32.0369    0.1623  -10.4121 C.2       9 UNK         0.5031 
     58 O          33.1527   -0.1709  -10.8145 O.2       9 UNK        -0.5390 
     59 N          31.7730    1.3426   -9.8284 N.am      10 UNK        -0.4204 
     60 CA         32.7221    2.4195   -9.5140 C.3       10 UNK         0.0237 
     61 CB         33.2908    3.0516  -10.8027 C.3       10 UNK        -0.1985 
     62 C          33.8121    1.9674   -8.5214 C.2       10 UNK         0.4970 
     63 O          35.0028    2.1760   -8.7634 O.2       10 UNK        -0.4914 
     64 N          33.3711    1.3456   -7.4225 N.am      11 UNK        -0.4285 
     65 CA         34.2244    0.8191   -6.3444 C.3       11 UNK         0.1007 
     66 C          34.6588    1.8922   -5.3055 C.2       11 UNK         0.5703 
     67 N          34.1001    3.0972   -5.3175 N.am      11 UNK        -0.7361 
     68 O          35.5290    1.6291   -4.4789 O.2       11 UNK        -0.4986 
     69 C69        33.5827   -0.4080   -5.6419 C.3       12 UNK        -0.0947 
     70 S70        33.1591   -1.7344   -6.8174 S.3       12 UNK        -0.2240 
     71 C71        33.2886   -3.2252   -5.7888 C.3       12 UNK         0.0194 
     72 H72        25.7437    2.6880   -2.0329 H         1 UNK         0.0906 
     73 H73        26.9886    2.3736   -0.8207 H         1 UNK         0.0906 
     74 H74        27.4417    2.9841   -2.4140 H         1 UNK         0.0906 
     75 H75        27.4295    0.1828   -0.6028 H         1 UNK         0.3140 
     76 H76        27.8722   -1.5593   -2.8654 H         1 UNK         0.1085 
     77 H77        27.8393   -2.1049    0.1428 H         1 UNK         0.0836 
     78 H78        28.1546   -3.3320   -1.0518 H         1 UNK         0.0836 
     79 H79        30.3883   -4.1049   -0.8400 H         1 UNK         0.0731 
     80 H80        31.8512   -3.1850   -1.0092 H         1 UNK         0.0731 
     81 H81        32.7693   -2.6341   -3.1739 H         1 UNK         0.1312 
     82 H82        31.0201   -4.4777   -6.6271 H         1 UNK         0.1406 
     83 H83        28.9335   -4.5324   -2.8848 H         1 UNK         0.1631 
     84 H84        28.0334   -5.7593   -4.7039 H         1 UNK         0.0717 
     85 H85        29.1894   -6.3031   -5.8894 H         1 UNK         0.0717 
     86 H86        25.8863   -3.7537   -5.6008 H         1 UNK         0.0934 
     87 H87        27.3405   -3.1714   -4.8393 H         1 UNK         0.0934 
     88 H88        26.3569   -2.1883   -7.5627 H         1 UNK         0.0739 
     89 H89        25.3759   -1.3930   -4.9972 H         1 UNK         0.3093 
     90 H90        24.6580    1.6762   -5.3388 H         1 UNK         0.0818 
     91 H91        22.2705    1.9158   -6.0630 H         1 UNK         0.0819 
     92 H92        23.3793    1.9334   -7.4226 H         1 UNK         0.0819 
     93 H93        22.4417    0.4886   -7.0852 H         1 UNK         0.0819 
     94 H94        23.8837    0.5641   -3.6379 H         1 UNK         0.3041 
     95 H95        23.1262   -0.9088   -2.3294 H         1 UNK         0.0784 
     96 H96        20.8815    0.0865   -2.7348 H         1 UNK         0.0793 
     97 H97        20.2825   -1.4461   -3.3551 H         1 UNK         0.0793 
     98 H98        20.7389   -1.2955   -1.6593 H         1 UNK         0.0793 
     99 H99        22.2168   -3.3350   -3.7690 H         1 UNK         0.3024 
    100 H100       23.2735   -2.0644   -0.5344 H         1 UNK         0.1171 
    101 H101       24.1824   -3.3311    1.3083 H         1 UNK         0.0786 
    102 H102       22.8922   -4.2606    0.5686 H         1 UNK         0.0786 
    103 H103       24.5679   -4.6950    0.2600 H         1 UNK         0.0786 
    104 H104       25.7635   -2.2510   -0.1212 H         1 UNK         0.2977 
    105 H105       27.8390   -0.4249   -4.8084 H         1 UNK         0.3127 
    106 H106       30.4892   -0.3962   -5.9962 H         1 UNK         0.0770 
    107 H107       29.3525    1.2870   -3.7006 H         1 UNK         0.0814 
    108 H108       31.0390    1.1401   -4.1230 H         1 UNK         0.0814 
    109 H109       30.1751   -0.2666   -3.5220 H         1 UNK         0.0814 
    110 H110       27.6328    1.6549   -6.1180 H         1 UNK         0.2983 
    111 H111       28.8952    3.9331   -7.3838 H         1 UNK         0.0947 
    112 H112       26.5538    4.6404   -7.8332 H         1 UNK         0.0806 
    113 H113       26.7410    4.1535   -6.1566 H         1 UNK         0.0806 
    114 H114       25.9475    3.0788   -7.3065 H         1 UNK         0.0806 
    115 H115       26.9743    1.1262   -8.5866 H         1 UNK         0.3000 
    116 H116       27.1434    1.7764  -11.3365 H         1 UNK         0.0850 
    117 H117       26.3666   -0.5862  -11.6601 H         1 UNK         0.0810 
    118 H118       25.4355    0.2429  -10.4223 H         1 UNK         0.0810 
    119 H119       26.6728   -0.9223   -9.9599 H         1 UNK         0.0810 
    120 H120       29.1651   -0.4794   -9.3661 H         1 UNK         0.3040 
    121 H121       30.8745   -1.1264  -11.6431 H         1 UNK         0.0766 
    122 H122       31.0082   -1.8782   -8.6853 H         1 UNK         0.0812 
    123 H123       32.0448   -2.5447   -9.9389 H         1 UNK         0.0812 
    124 H124       30.3136   -2.8451   -9.9788 H         1 UNK         0.0812 
    125 H125       30.8264    1.4995   -9.5091 H         1 UNK         0.3205 
    126 H126       32.1448    3.1910   -9.0019 H         1 UNK         0.0754 
    127 H127       33.9034    3.9238  -10.5711 H         1 UNK         0.0769 
    128 H128       32.4917    3.3838  -11.4654 H         1 UNK         0.0769 
    129 H129       33.9180    2.3529  -11.3572 H         1 UNK         0.0769 
    130 H130       32.3665    1.2943   -7.2738 H         1 UNK         0.2981 
    131 H131       35.1510    0.4687   -6.8029 H         1 UNK         0.0541 
    132 H132       33.3810    3.3190   -5.9870 H         1 UNK         0.3459 
    133 H133       34.3951    3.7856   -4.6432 H         1 UNK         0.3459 
    134 H134       32.6815   -0.1227   -5.1032 H         1 UNK         0.0612 
    135 H135       34.2684   -0.8119   -4.8951 H         1 UNK         0.0612 
    136 H136       33.4893   -4.0737   -6.4445 H         1 UNK         0.0624 
    137 H137       34.1539   -3.1503   -5.1287 H         1 UNK         0.0624 
@<TRIPOS>BOND
     1    1    2 1    
     2    1   72 1    
     3    1   73 1    
     4    1   74 1    
     5    2    3 2    
     6    2    4 am   BACKBONE|DICT|INTERRES
     7    4    5 1    
     8    4   75 1    
     9    5    6 1    
    10    5   35 1    
    11    5   76 1    
    12    6    7 1    
    13    6   77 1    
    14    6   78 1    
    15    7    8 1    
    16    8    9 1    
    17    8   79 1    
    18    8   80 1    
    19    9   10 ar   
    20    9   14 ar   
    21   10   11 ar   
    22   10   81 1    
    23   11   12 ar   
    24   11   71 1    
    25   12   13 ar   
    26   12   82 1    
    27   13   14 ar   
    28   13   15 1    
    29   14   83 1    
    30   15   16 1    
    31   15   84 1    
    32   15   85 1    
    33   16   17 1    
    34   17   18 1    
    35   17   86 1    
    36   17   87 1    
    37   18   19 1    
    38   18   37 1    
    39   18   88 1    
    40   19   20 am   BACKBONE|DICT|INTERRES
    41   19   89 1    
    42   20   21 2    
    43   20   22 1    
    44   22   23 1    
    45   22   24 1    
    46   22   90 1    
    47   23   91 1    
    48   23   92 1    
    49   23   93 1    
    50   24   25 am   BACKBONE|DICT|INTERRES
    51   24   94 1    
    52   25   26 2    
    53   25   27 1    
    54   27   28 1    
    55   27   29 1    
    56   27   95 1    
    57   28   96 1    
    58   28   97 1    
    59   28   98 1    
    60   29   30 am   BACKBONE|DICT|INTERRES
    61   29   99 1    
    62   30   31 2    
    63   30   32 1    
    64   32   33 1    
    65   32   34 1    
    66   32  100 1    
    67   33  101 1    
    68   33  102 1    
    69   33  103 1    
    70   34   35 am   BACKBONE|DICT|INTERRES
    71   34  104 1    
    72   35   36 2    
    73   37   38 2    
    74   37   39 am   BACKBONE|DICT|INTERRES
    75   39   40 1    
    76   39  105 1    
    77   40   41 1    
    78   40   42 1    
    79   40  106 1    
    80   41  107 1    
    81   41  108 1    
    82   41  109 1    
    83   42   43 2    
    84   42   44 am   BACKBONE|DICT|INTERRES
    85   44   45 1    
    86   44  110 1    
    87   45   46 1    
    88   45   47 1    
    89   45  111 1    
    90   46  112 1    
    91   46  113 1    
    92   46  114 1    
    93   47   48 2    
    94   47   49 am   BACKBONE|DICT|INTERRES
    95   49   50 1    
    96   49  115 1    
    97   50   51 1    
    98   50   52 1    
    99   50  116 1    
   100   51  117 1    
   101   51  118 1    
   102   51  119 1    
   103   52   53 2    
   104   52   54 am   BACKBONE|DICT|INTERRES
   105   54   55 1    
   106   54  120 1    
   107   55   56 1    
   108   55   57 1    
   109   55  121 1    
   110   56  122 1    
   111   56  123 1    
   112   56  124 1    
   113   57   58 2    
   114   57   59 am   BACKBONE|DICT|INTERRES
   115   59   60 1    
   116   59  125 1    
   117   60   61 1    
   118   60   62 1    
   119   60  126 1    
   120   61  127 1    
   121   61  128 1    
   122   61  129 1    
   123   62   63 2    
   124   62   64 am   BACKBONE|DICT|INTERRES
   125   64   65 1    
   126   64  130 1    
   127   65   66 1    
   128   65   69 1    
   129   65  131 1    
   130   66   67 am   BACKBONE|DICT|INTERRES
   131   66   68 2    
   132   67  132 1    
   133   67  133 1    
   134   69   70 1    
   135   69  134 1    
   136   69  135 1    
   137   70   71 1    
   138   71  136 1    
   139   71  137 1    
@<TRIPOS>SUBSTRUCTURE
     1 UNK         1 GROUP             0       ****    0 ROOT    
