@<TRIPOS>MOLECULE
3R137
137   139    1
SMALL
USER_CHARGES


@<TRIPOS>ATOM
      1 CA         24.1015   -6.5484   -2.1372 C.3       0 UNK        -0.2020 
      2 C          25.2670   -5.8537   -1.4479 C.2       0 UNK         0.4855 
      3 O          25.2916   -5.7803   -0.2187 O.2       0 UNK        -0.5197 
      4 N          26.2304   -5.3546   -2.2323 N.am      1 UNK        -0.4892 
      5 CA         27.3882   -4.5849   -1.7660 C.3       1 UNK         0.0835 
      6 C6         28.6814   -5.0352   -2.5005 C.3       12 UNK        -0.0855 
      7 S7         30.2123   -4.6887   -1.5561 S.3       12 UNK        -0.2931 
      8 C8         31.4690   -4.4804   -2.8645 C.3       12 UNK         0.0378 
      9 C9         31.2290   -3.2082   -3.6606 C.ar      12 UNK        -0.0802 
     10 C10        31.6691   -1.9727   -3.1784 C.ar      12 UNK        -0.0944 
     11 C11        31.3483   -0.7919   -3.8570 C.ar      12 UNK        -0.0787 
     12 C12        30.5603   -0.8542   -5.0113 C.ar      12 UNK        -0.0862 
     13 C13        30.1291   -2.0892   -5.5063 C.ar      12 UNK        -0.0733 
     14 C14        30.5084   -3.2622   -4.8535 C.ar      12 UNK        -0.0832 
     15 C15        29.1849   -2.1712   -6.6928 C.3       12 UNK         0.0240 
     16 S16        27.5780   -2.8373   -6.1592 S.3       12 UNK        -0.2522 
     17 C17        26.4859   -2.3810   -7.5478 C.3       12 UNK        -0.0967 
     18 CA         25.5930   -1.1432   -7.2532 C.3       5 UNK         0.0660 
     19 N          24.9285   -1.2287   -5.9513 N.am      5 UNK        -0.4015 
     20 C          23.7343   -1.7925   -5.7308 C.2       4 UNK         0.4946 
     21 O          23.0183   -2.2422   -6.6271 O.2       4 UNK        -0.5353 
     22 CA         23.2433   -1.8930   -4.2720 C.3       4 UNK         0.0277 
     23 CB         23.3726   -3.3395   -3.7693 C.3       4 UNK        -0.1981 
     24 N          23.9412   -1.0021   -3.3409 N.am      4 UNK        -0.4209 
     25 C          23.8653    0.3370   -3.3660 C.2       3 UNK         0.4942 
     26 O          23.1528    0.9649   -4.1499 O.2       3 UNK        -0.5208 
     27 CA         24.7608    1.1184   -2.3877 C.3       3 UNK         0.0250 
     28 CB         23.9577    1.5327   -1.1444 C.3       3 UNK        -0.1990 
     29 N          25.9738    0.4136   -1.9619 N.am      3 UNK        -0.4232 
     30 C          26.9234   -0.0982   -2.7596 C.2       2 UNK         0.4993 
     31 O          26.8755   -0.0670   -3.9898 O.2       2 UNK        -0.5286 
     32 CA         28.1189   -0.7759   -2.0632 C.3       2 UNK         0.0209 
     33 CB         28.3286   -0.3208   -0.6023 C.3       2 UNK        -0.1931 
     34 N          28.0958   -2.2437   -2.1181 N.am      2 UNK        -0.4546 
     35 C          27.0750   -3.0680   -1.8368 C.2       1 UNK         0.5154 
     36 O          25.9278   -2.6740   -1.6039 O.2       1 UNK        -0.5181 
     37 C          26.3111    0.2104   -7.4173 C.2       5 UNK         0.5014 
     38 O          27.3026    0.2943   -8.1456 O.2       5 UNK        -0.5248 
     39 N          25.7838    1.2693   -6.7829 N.am      6 UNK        -0.4434 
     40 CA         26.3429    2.6284   -6.7976 C.3       6 UNK         0.0363 
     41 CB         25.5072    3.5308   -5.8769 C.3       6 UNK        -0.1936 
     42 C          26.4664    3.2619   -8.1973 C.2       6 UNK         0.5081 
     43 O          27.3219    4.1244   -8.3935 O.2       6 UNK        -0.5248 
     44 N          25.6316    2.8155   -9.1464 N.am      7 UNK        -0.4718 
     45 CA         25.6994    3.1984  -10.5588 C.3       7 UNK         0.0273 
     46 CB         24.3812    2.8123  -11.2492 C.3       7 UNK        -0.1935 
     47 C          26.8977    2.5761  -11.3017 C.2       7 UNK         0.5018 
     48 O          27.3596    3.1626  -12.2812 O.2       7 UNK        -0.5186 
     49 N          27.3716    1.4101  -10.8387 N.am      8 UNK        -0.4240 
     50 CA         28.5477    0.7215  -11.3730 C.3       8 UNK         0.0235 
     51 CB         28.3573   -0.8010  -11.2644 C.3       8 UNK        -0.2000 
     52 C          29.8204    1.1635  -10.6380 C.2       8 UNK         0.4941 
     53 O          30.8257    1.4321  -11.2960 O.2       8 UNK        -0.5273 
     54 N          29.7412    1.2408   -9.2983 N.am      9 UNK        -0.4262 
     55 CA         30.7894    1.6810   -8.3681 C.3       9 UNK         0.0264 
     56 CB         31.0222    3.2005   -8.5000 C.3       9 UNK        -0.1955 
     57 C          32.0913    0.8636   -8.4953 C.2       9 UNK         0.5031 
     58 O          33.1708    1.4366   -8.6567 O.2       9 UNK        -0.5390 
     59 N          31.9616   -0.4702   -8.4206 N.am      10 UNK        -0.4204 
     60 CA         33.0420   -1.4544   -8.5921 C.3       10 UNK         0.0237 
     61 CB         32.4606   -2.8730   -8.4795 C.3       10 UNK        -0.1985 
     62 C          34.2432   -1.2940   -7.6384 C.2       10 UNK         0.4970 
     63 O          35.3430   -1.7277   -7.9838 O.2       10 UNK        -0.4914 
     64 N          34.0229   -0.6628   -6.4795 N.am      11 UNK        -0.4285 
     65 CA         35.0632   -0.2035   -5.5483 C.3       11 UNK         0.1007 
     66 C          35.9985    0.9166   -6.0979 C.2       11 UNK         0.5703 
     67 N          35.6594    1.6107   -7.1786 N.am      11 UNK        -0.7361 
     68 O          37.0649    1.1506   -5.5336 O.2       11 UNK        -0.4986 
     69 C69        34.4594    0.1856   -4.1720 C.3       12 UNK        -0.0947 
     70 S70        33.0639    1.3628   -4.3015 S.3       12 UNK        -0.2240 
     71 C71        31.7826    0.5546   -3.2930 C.3       12 UNK         0.0194 
     72 H72        23.1654   -6.0541   -1.8789 H         1 UNK         0.0906 
     73 H73        24.2015   -6.5368   -3.2225 H         1 UNK         0.0906 
     74 H74        24.0389   -7.5870   -1.8137 H         1 UNK         0.0906 
     75 H75        26.1353   -5.4274   -3.2353 H         1 UNK         0.3140 
     76 H76        27.5352   -4.7958   -0.7043 H         1 UNK         0.1085 
     77 H77        28.6601   -6.1164   -2.6481 H         1 UNK         0.0836 
     78 H78        28.7129   -4.6118   -3.5020 H         1 UNK         0.0836 
     79 H79        32.4580   -4.4441   -2.4051 H         1 UNK         0.0731 
     80 H80        31.4665   -5.3549   -3.5173 H         1 UNK         0.0731 
     81 H81        32.2318   -1.9298   -2.2557 H         1 UNK         0.1312 
     82 H82        30.2551    0.0611   -5.4978 H         1 UNK         0.1406 
     83 H83        30.1661   -4.2147   -5.2351 H         1 UNK         0.1631 
     84 H84        29.6032   -2.8155   -7.4665 H         1 UNK         0.0717 
     85 H85        29.0525   -1.1858   -7.1347 H         1 UNK         0.0717 
     86 H86        27.0664   -2.2575   -8.4630 H         1 UNK         0.0934 
     87 H87        25.8401   -3.2397   -7.7366 H         1 UNK         0.0934 
     88 H88        24.8246   -1.1182   -8.0286 H         1 UNK         0.0739 
     89 H89        25.4849   -0.9012   -5.1646 H         1 UNK         0.3093 
     90 H90        22.1860   -1.6200   -4.2654 H         1 UNK         0.0818 
     91 H91        23.0022   -3.4429   -2.7492 H         1 UNK         0.0819 
     92 H92        22.7990   -4.0251   -4.3946 H         1 UNK         0.0819 
     93 H93        24.4101   -3.6737   -3.7858 H         1 UNK         0.0819 
     94 H94        24.5730   -1.4404   -2.6772 H         1 UNK         0.3041 
     95 H95        25.0833    2.0254   -2.8997 H         1 UNK         0.0784 
     96 H96        23.0600    2.0859   -1.4250 H         1 UNK         0.0793 
     97 H97        23.6383    0.6663   -0.5637 H         1 UNK         0.0793 
     98 H98        24.5419    2.1803   -0.4902 H         1 UNK         0.0793 
     99 H99        26.0932    0.2958   -0.9664 H         1 UNK         0.3024 
    100 H100       28.9914   -0.4571   -2.6289 H         1 UNK         0.1171 
    101 H101       28.3597    0.7671   -0.5244 H         1 UNK         0.0786 
    102 H102       29.2780   -0.6917   -0.2151 H         1 UNK         0.0786 
    103 H103       27.5429   -0.6843    0.0610 H         1 UNK         0.0786 
    104 H104       28.9862   -2.6765   -2.3318 H         1 UNK         0.2977 
    105 H105       24.9580    1.1268   -6.2178 H         1 UNK         0.3127 
    106 H106       27.3532    2.5649   -6.3876 H         1 UNK         0.0770 
    107 H107       24.4644    3.5772   -6.1934 H         1 UNK         0.0814 
    108 H108       25.5321    3.1756   -4.8482 H         1 UNK         0.0814 
    109 H109       25.8933    4.5512   -5.8721 H         1 UNK         0.0814 
    110 H110       24.9431    2.1232   -8.8901 H         1 UNK         0.2983 
    111 H111       25.8094    4.2840  -10.6145 H         1 UNK         0.0947 
    112 H112       24.3892    3.1107  -12.2986 H         1 UNK         0.0806 
    113 H113       23.5285    3.3048  -10.7815 H         1 UNK         0.0806 
    114 H114       24.2078    1.7358  -11.2185 H         1 UNK         0.0806 
    115 H115       26.9799    1.0323   -9.9836 H         1 UNK         0.3000 
    116 H116       28.6656    0.9680  -12.4307 H         1 UNK         0.0850 
    117 H117       29.2079   -1.3297  -11.6966 H         1 UNK         0.0810 
    118 H118       27.4665   -1.1276  -11.8013 H         1 UNK         0.0810 
    119 H119       28.2637   -1.1297  -10.2297 H         1 UNK         0.0810 
    120 H120       28.8611    0.9631   -8.8663 H         1 UNK         0.3040 
    121 H121       30.4053    1.4995   -7.3640 H         1 UNK         0.0766 
    122 H122       31.7287    3.5542   -7.7478 H         1 UNK         0.0812 
    123 H123       30.0953    3.7566   -8.3606 H         1 UNK         0.0812 
    124 H124       31.4275    3.4645   -9.4773 H         1 UNK         0.0812 
    125 H125       31.0320   -0.8449   -8.3141 H         1 UNK         0.3205 
    126 H126       33.4253   -1.3246   -9.6063 H         1 UNK         0.0754 
    127 H127       33.2229   -3.6229   -8.6956 H         1 UNK         0.0769 
    128 H128       31.6461   -3.0313   -9.1867 H         1 UNK         0.0769 
    129 H129       32.0864   -3.0762   -7.4759 H         1 UNK         0.0769 
    130 H130       33.0891   -0.3441   -6.2705 H         1 UNK         0.2981 
    131 H131       35.7179   -1.0593   -5.3737 H         1 UNK         0.0541 
    132 H132       36.2828    2.3252   -7.5174 H         1 UNK         0.3459 
    133 H133       34.7743    1.4502   -7.6532 H         1 UNK         0.3459 
    134 H134       35.2176    0.6157   -3.5150 H         1 UNK         0.0612 
    135 H135       34.1265   -0.7193   -3.6647 H         1 UNK         0.0612 
    136 H136       30.9165    1.2154   -3.2355 H         1 UNK         0.0624 
    137 H137       32.1517    0.4478   -2.2717 H         1 UNK         0.0624 
@<TRIPOS>BOND
     1    1    2 1    
     2    1   72 1    
     3    1   73 1    
     4    1   74 1    
     5    2    3 2    
     6    2    4 am   BACKBONE|DICT|INTERRES
     7    4    5 1    
     8    4   75 1    
     9    5    6 1    
    10    5   35 1    
    11    5   76 1    
    12    6    7 1    
    13    6   77 1    
    14    6   78 1    
    15    7    8 1    
    16    8    9 1    
    17    8   79 1    
    18    8   80 1    
    19    9   10 ar   
    20    9   14 ar   
    21   10   11 ar   
    22   10   81 1    
    23   11   12 ar   
    24   11   71 1    
    25   12   13 ar   
    26   12   82 1    
    27   13   14 ar   
    28   13   15 1    
    29   14   83 1    
    30   15   16 1    
    31   15   84 1    
    32   15   85 1    
    33   16   17 1    
    34   17   18 1    
    35   17   86 1    
    36   17   87 1    
    37   18   19 1    
    38   18   37 1    
    39   18   88 1    
    40   19   20 am   BACKBONE|DICT|INTERRES
    41   19   89 1    
    42   20   21 2    
    43   20   22 1    
    44   22   23 1    
    45   22   24 1    
    46   22   90 1    
    47   23   91 1    
    48   23   92 1    
    49   23   93 1    
    50   24   25 am   BACKBONE|DICT|INTERRES
    51   24   94 1    
    52   25   26 2    
    53   25   27 1    
    54   27   28 1    
    55   27   29 1    
    56   27   95 1    
    57   28   96 1    
    58   28   97 1    
    59   28   98 1    
    60   29   30 am   BACKBONE|DICT|INTERRES
    61   29   99 1    
    62   30   31 2    
    63   30   32 1    
    64   32   33 1    
    65   32   34 1    
    66   32  100 1    
    67   33  101 1    
    68   33  102 1    
    69   33  103 1    
    70   34   35 am   BACKBONE|DICT|INTERRES
    71   34  104 1    
    72   35   36 2    
    73   37   38 2    
    74   37   39 am   BACKBONE|DICT|INTERRES
    75   39   40 1    
    76   39  105 1    
    77   40   41 1    
    78   40   42 1    
    79   40  106 1    
    80   41  107 1    
    81   41  108 1    
    82   41  109 1    
    83   42   43 2    
    84   42   44 am   BACKBONE|DICT|INTERRES
    85   44   45 1    
    86   44  110 1    
    87   45   46 1    
    88   45   47 1    
    89   45  111 1    
    90   46  112 1    
    91   46  113 1    
    92   46  114 1    
    93   47   48 2    
    94   47   49 am   BACKBONE|DICT|INTERRES
    95   49   50 1    
    96   49  115 1    
    97   50   51 1    
    98   50   52 1    
    99   50  116 1    
   100   51  117 1    
   101   51  118 1    
   102   51  119 1    
   103   52   53 2    
   104   52   54 am   BACKBONE|DICT|INTERRES
   105   54   55 1    
   106   54  120 1    
   107   55   56 1    
   108   55   57 1    
   109   55  121 1    
   110   56  122 1    
   111   56  123 1    
   112   56  124 1    
   113   57   58 2    
   114   57   59 am   BACKBONE|DICT|INTERRES
   115   59   60 1    
   116   59  125 1    
   117   60   61 1    
   118   60   62 1    
   119   60  126 1    
   120   61  127 1    
   121   61  128 1    
   122   61  129 1    
   123   62   63 2    
   124   62   64 am   BACKBONE|DICT|INTERRES
   125   64   65 1    
   126   64  130 1    
   127   65   66 1    
   128   65   69 1    
   129   65  131 1    
   130   66   67 am   BACKBONE|DICT|INTERRES
   131   66   68 2    
   132   67  132 1    
   133   67  133 1    
   134   69   70 1    
   135   69  134 1    
   136   69  135 1    
   137   70   71 1    
   138   71  136 1    
   139   71  137 1    
@<TRIPOS>SUBSTRUCTURE
     1 UNK         1 GROUP             0       ****    0 ROOT    
