@<TRIPOS>MOLECULE
3R137
137   139    1
SMALL
USER_CHARGES


@<TRIPOS>ATOM
      1 CA         25.2107   -4.2173    2.4005 C.3       0 UNK        -0.2020 
      2 C          26.4913   -4.8159    1.8240 C.2       0 UNK         0.4855 
      3 O          26.6470   -6.0350    1.8448 O.2       0 UNK        -0.5197 
      4 N          27.4385   -4.0188    1.3083 N.am      1 UNK        -0.4892 
      5 CA         27.4009   -2.5581    1.1437 C.3       1 UNK         0.0835 
      6 C6         28.8055   -1.9736    0.8335 C.3       12 UNK        -0.0855 
      7 S7         29.7238   -2.8677   -0.4712 S.3       12 UNK        -0.2931 
      8 C8         29.5180   -1.7541   -1.8929 C.3       12 UNK         0.0378 
      9 C9         30.0476   -2.4009   -3.1629 C.ar      12 UNK        -0.0802 
     10 C10        31.2870   -2.0259   -3.6902 C.ar      12 UNK        -0.0944 
     11 C11        31.7852   -2.6502   -4.8378 C.ar      12 UNK        -0.0787 
     12 C12        31.0291   -3.6483   -5.4636 C.ar      12 UNK        -0.0862 
     13 C13        29.7907   -4.0360   -4.9416 C.ar      12 UNK        -0.0733 
     14 C14        29.3021   -3.3988   -3.7969 C.ar      12 UNK        -0.0832 
     15 C15        29.0209   -5.1959   -5.5640 C.3       12 UNK         0.0240 
     16 S16        28.0955   -4.7305   -7.0620 S.3       12 UNK        -0.2522 
     17 C17        26.7497   -3.7066   -6.3728 C.3       12 UNK        -0.0967 
     18 CA         26.4995   -2.4026   -7.1677 C.3       5 UNK         0.0660 
     19 N          25.3194   -1.6869   -6.6805 N.am      5 UNK        -0.4015 
     20 C          24.7135   -0.6824   -7.3309 C.2       4 UNK         0.4946 
     21 O          25.0407   -0.2900   -8.4509 O.2       4 UNK        -0.5353 
     22 CA         23.5760    0.0348   -6.5843 C.3       4 UNK         0.0277 
     23 CB         22.2545   -0.7349   -6.7374 C.3       4 UNK        -0.1981 
     24 N          23.8726    0.2328   -5.1626 N.am      4 UNK        -0.4209 
     25 C          24.8580    1.0172   -4.7019 C.2       3 UNK         0.4942 
     26 O          25.5780    1.7032   -5.4250 O.2       3 UNK        -0.5208 
     27 CA         25.1134    1.0087   -3.1856 C.3       3 UNK         0.0250 
     28 CB         24.2727    2.0925   -2.4928 C.3       3 UNK        -0.1990 
     29 N          24.8707   -0.2862   -2.5414 N.am      3 UNK        -0.4232 
     30 C          25.5024   -1.4296   -2.8398 C.2       2 UNK         0.4993 
     31 O          26.3386   -1.5366   -3.7401 O.2       2 UNK        -0.5286 
     32 CA         25.1344   -2.6591   -1.9901 C.3       2 UNK         0.0209 
     33 CB         25.0074   -3.9252   -2.8557 C.3       2 UNK        -0.1931 
     34 N          26.1097   -2.9041   -0.9250 N.am      2 UNK        -0.4546 
     35 C          26.3493   -2.0915    0.1149 C.2       1 UNK         0.5154 
     36 O          25.7486   -1.0345    0.3091 O.2       1 UNK        -0.5181 
     37 C          27.7236   -1.4695   -7.1849 C.2       5 UNK         0.5014 
     38 O          28.4080   -1.4040   -8.2063 O.2       5 UNK        -0.5248 
     39 N          27.9353   -0.7243   -6.0881 N.am      6 UNK        -0.4434 
     40 CA         29.0003    0.2738   -5.9635 C.3       6 UNK         0.0363 
     41 CB         28.9621    0.9213   -4.5712 C.3       6 UNK        -0.1936 
     42 C          28.9362    1.3557   -7.0530 C.2       6 UNK         0.5081 
     43 O          29.9658    1.6722   -7.6452 O.2       6 UNK        -0.5248 
     44 N          27.7298    1.8732   -7.3234 N.am      7 UNK        -0.4718 
     45 CA         27.4581    2.8356   -8.3913 C.3       7 UNK         0.0273 
     46 CB         26.0201    3.3623   -8.2612 C.3       7 UNK        -0.1935 
     47 C          27.7027    2.2571   -9.7941 C.2       7 UNK         0.5018 
     48 O          28.3463    2.9196  -10.6081 O.2       7 UNK        -0.5186 
     49 N          27.2078    1.0361  -10.0480 N.am      8 UNK        -0.4240 
     50 CA         27.3641    0.3284  -11.3229 C.3       8 UNK         0.0235 
     51 CB         26.4794   -0.9286  -11.3333 C.3       8 UNK        -0.2000 
     52 C          28.8241   -0.0342  -11.6413 C.2       8 UNK         0.4941 
     53 O          29.2589    0.1530  -12.7783 O.2       8 UNK        -0.5273 
     54 N          29.5550   -0.5325  -10.6359 N.am      9 UNK        -0.4262 
     55 CA         30.9696   -0.8988  -10.7393 C.3       9 UNK         0.0264 
     56 CB         31.2871   -1.9410   -9.6557 C.3       9 UNK        -0.1955 
     57 C          31.9299    0.3035  -10.6469 C.2       9 UNK         0.5031 
     58 O          33.1114    0.1388  -10.9551 O.2       9 UNK        -0.5390 
     59 N          31.4200    1.4729  -10.2296 N.am      10 UNK        -0.4204 
     60 CA         32.1361    2.7302   -9.9770 C.3       10 UNK         0.0237 
     61 CB         32.7220    3.3117  -11.2817 C.3       10 UNK        -0.1985 
     62 C          33.1732    2.5966   -8.8435 C.2       10 UNK         0.4970 
     63 O          34.3042    3.0701   -8.9736 O.2       10 UNK        -0.4914 
     64 N          32.7613    1.9393   -7.7549 N.am      11 UNK        -0.4285 
     65 CA         33.5552    1.7201   -6.5400 C.3       11 UNK         0.1007 
     66 C          33.6447    2.9993   -5.6661 C.2       11 UNK         0.5703 
     67 N          34.7270    3.1604   -4.9166 N.am      11 UNK        -0.7361 
     68 O          32.7347    3.8262   -5.6306 O.2       11 UNK        -0.4986 
     69 C69        33.0124    0.5201   -5.7209 C.3       12 UNK        -0.0947 
     70 S70        33.0939   -1.0318   -6.6747 S.3       12 UNK        -0.2240 
     71 C71        33.1660   -2.2929   -5.3689 C.3       12 UNK         0.0194 
     72 H72        25.4177   -3.3690    3.0511 H         1 UNK         0.0906 
     73 H73        24.5411   -3.8972    1.6029 H         1 UNK         0.0906 
     74 H74        24.6817   -4.9605    2.9969 H         1 UNK         0.0906 
     75 H75        28.2783   -4.4489    0.9442 H         1 UNK         0.3140 
     76 H76        27.0951   -2.1290    2.0998 H         1 UNK         0.1085 
     77 H77        28.7488   -0.9097    0.5928 H         1 UNK         0.0836 
     78 H78        29.4137   -2.0265    1.7380 H         1 UNK         0.0836 
     79 H79        30.0338   -0.8135   -1.6931 H         1 UNK         0.0731 
     80 H80        28.4638   -1.5096   -2.0217 H         1 UNK         0.0731 
     81 H81        31.8740   -1.2635   -3.1968 H         1 UNK         0.1312 
     82 H82        31.4173   -4.1436   -6.3432 H         1 UNK         0.1406 
     83 H83        28.3528   -3.6963   -3.3743 H         1 UNK         0.1631 
     84 H84        28.3326   -5.6341   -4.8394 H         1 UNK         0.0717 
     85 H85        29.7228   -5.9892   -5.8253 H         1 UNK         0.0717 
     86 H86        25.8446   -4.3159   -6.3683 H         1 UNK         0.0934 
     87 H87        26.9589   -3.4784   -5.3296 H         1 UNK         0.0934 
     88 H88        26.2959   -2.6845   -8.2033 H         1 UNK         0.0739 
     89 H89        25.0322   -1.8909   -5.7346 H         1 UNK         0.3093 
     90 H90        23.4525    1.0194   -7.0410 H         1 UNK         0.0818 
     91 H91        21.4246   -0.1917   -6.2849 H         1 UNK         0.0819 
     92 H92        22.0084   -0.8785   -7.7906 H         1 UNK         0.0819 
     93 H93        22.3015   -1.7222   -6.2764 H         1 UNK         0.0819 
     94 H94        23.3157   -0.2819   -4.4962 H         1 UNK         0.3041 
     95 H95        26.1669    1.2495   -3.0328 H         1 UNK         0.0784 
     96 H96        24.4550    3.0717   -2.9384 H         1 UNK         0.0793 
     97 H97        23.2040    1.8907   -2.5747 H         1 UNK         0.0793 
     98 H98        24.5206    2.1702   -1.4339 H         1 UNK         0.0793 
     99 H99        24.2422   -0.2801   -1.7500 H         1 UNK         0.3024 
    100 H100       24.1629   -2.4775   -1.5247 H         1 UNK         0.1171 
    101 H101       24.6205   -4.7625   -2.2745 H         1 UNK         0.0786 
    102 H102       24.3199   -3.7662   -3.6875 H         1 UNK         0.0786 
    103 H103       25.9654   -4.2295   -3.2766 H         1 UNK         0.0786 
    104 H104       26.6583   -3.7489   -0.9945 H         1 UNK         0.2977 
    105 H105       27.3409   -0.8724   -5.2767 H         1 UNK         0.3127 
    106 H106       29.9444   -0.2630   -6.0735 H         1 UNK         0.0770 
    107 H107       28.0839    1.5527   -4.4420 H         1 UNK         0.0814 
    108 H108       29.8381    1.5513   -4.4128 H         1 UNK         0.0814 
    109 H109       28.9504    0.1730   -3.7831 H         1 UNK         0.0814 
    110 H110       26.9410    1.6036   -6.7396 H         1 UNK         0.2983 
    111 H111       28.1417    3.6771   -8.2588 H         1 UNK         0.0947 
    112 H112       25.7967    4.0892   -9.0433 H         1 UNK         0.0806 
    113 H113       25.8665    3.8588   -7.3029 H         1 UNK         0.0806 
    114 H114       25.2867    2.5588   -8.3403 H         1 UNK         0.0806 
    115 H115       26.6629    0.5670   -9.3300 H         1 UNK         0.3000 
    116 H116       27.0124    0.9947  -12.1136 H         1 UNK         0.0850 
    117 H117       26.5748   -1.4675  -12.2769 H         1 UNK         0.0810 
    118 H118       25.4268   -0.6725  -11.2113 H         1 UNK         0.0810 
    119 H119       26.7495   -1.6184  -10.5329 H         1 UNK         0.0810 
    120 H120       29.1049   -0.7083   -9.7365 H         1 UNK         0.3040 
    121 H121       31.1382   -1.3666  -11.7116 H         1 UNK         0.0766 
    122 H122       31.0661   -1.5567   -8.6599 H         1 UNK         0.0812 
    123 H123       32.3399   -2.2258   -9.6730 H         1 UNK         0.0812 
    124 H124       30.7007   -2.8492   -9.7951 H         1 UNK         0.0812 
    125 H125       30.4459    1.4763   -9.9541 H         1 UNK         0.3205 
    126 H126       31.3842    3.4334   -9.6151 H         1 UNK         0.0754 
    127 H127       33.1391    4.3051  -11.1125 H         1 UNK         0.0769 
    128 H128       31.9549    3.4091  -12.0500 H         1 UNK         0.0769 
    129 H129       33.5218    2.6882  -11.6824 H         1 UNK         0.0769 
    130 H130       31.7826    1.6636   -7.7059 H         1 UNK         0.2981 
    131 H131       34.5711    1.4736   -6.8560 H         1 UNK         0.0541 
    132 H132       35.4759    2.4854   -4.9287 H         1 UNK         0.3459 
    133 H133       34.7995    3.9779   -4.3314 H         1 UNK         0.3459 
    134 H134       31.9821    0.6940   -5.4106 H         1 UNK         0.0612 
    135 H135       33.5936    0.3938   -4.8059 H         1 UNK         0.0612 
    136 H136       33.8174   -1.9584   -4.5602 H         1 UNK         0.0624 
    137 H137       33.6370   -3.1864   -5.7813 H         1 UNK         0.0624 
@<TRIPOS>BOND
     1    1    2 1    
     2    1   72 1    
     3    1   73 1    
     4    1   74 1    
     5    2    3 2    
     6    2    4 am   BACKBONE|DICT|INTERRES
     7    4    5 1    
     8    4   75 1    
     9    5    6 1    
    10    5   35 1    
    11    5   76 1    
    12    6    7 1    
    13    6   77 1    
    14    6   78 1    
    15    7    8 1    
    16    8    9 1    
    17    8   79 1    
    18    8   80 1    
    19    9   10 ar   
    20    9   14 ar   
    21   10   11 ar   
    22   10   81 1    
    23   11   12 ar   
    24   11   71 1    
    25   12   13 ar   
    26   12   82 1    
    27   13   14 ar   
    28   13   15 1    
    29   14   83 1    
    30   15   16 1    
    31   15   84 1    
    32   15   85 1    
    33   16   17 1    
    34   17   18 1    
    35   17   86 1    
    36   17   87 1    
    37   18   19 1    
    38   18   37 1    
    39   18   88 1    
    40   19   20 am   BACKBONE|DICT|INTERRES
    41   19   89 1    
    42   20   21 2    
    43   20   22 1    
    44   22   23 1    
    45   22   24 1    
    46   22   90 1    
    47   23   91 1    
    48   23   92 1    
    49   23   93 1    
    50   24   25 am   BACKBONE|DICT|INTERRES
    51   24   94 1    
    52   25   26 2    
    53   25   27 1    
    54   27   28 1    
    55   27   29 1    
    56   27   95 1    
    57   28   96 1    
    58   28   97 1    
    59   28   98 1    
    60   29   30 am   BACKBONE|DICT|INTERRES
    61   29   99 1    
    62   30   31 2    
    63   30   32 1    
    64   32   33 1    
    65   32   34 1    
    66   32  100 1    
    67   33  101 1    
    68   33  102 1    
    69   33  103 1    
    70   34   35 am   BACKBONE|DICT|INTERRES
    71   34  104 1    
    72   35   36 2    
    73   37   38 2    
    74   37   39 am   BACKBONE|DICT|INTERRES
    75   39   40 1    
    76   39  105 1    
    77   40   41 1    
    78   40   42 1    
    79   40  106 1    
    80   41  107 1    
    81   41  108 1    
    82   41  109 1    
    83   42   43 2    
    84   42   44 am   BACKBONE|DICT|INTERRES
    85   44   45 1    
    86   44  110 1    
    87   45   46 1    
    88   45   47 1    
    89   45  111 1    
    90   46  112 1    
    91   46  113 1    
    92   46  114 1    
    93   47   48 2    
    94   47   49 am   BACKBONE|DICT|INTERRES
    95   49   50 1    
    96   49  115 1    
    97   50   51 1    
    98   50   52 1    
    99   50  116 1    
   100   51  117 1    
   101   51  118 1    
   102   51  119 1    
   103   52   53 2    
   104   52   54 am   BACKBONE|DICT|INTERRES
   105   54   55 1    
   106   54  120 1    
   107   55   56 1    
   108   55   57 1    
   109   55  121 1    
   110   56  122 1    
   111   56  123 1    
   112   56  124 1    
   113   57   58 2    
   114   57   59 am   BACKBONE|DICT|INTERRES
   115   59   60 1    
   116   59  125 1    
   117   60   61 1    
   118   60   62 1    
   119   60  126 1    
   120   61  127 1    
   121   61  128 1    
   122   61  129 1    
   123   62   63 2    
   124   62   64 am   BACKBONE|DICT|INTERRES
   125   64   65 1    
   126   64  130 1    
   127   65   66 1    
   128   65   69 1    
   129   65  131 1    
   130   66   67 am   BACKBONE|DICT|INTERRES
   131   66   68 2    
   132   67  132 1    
   133   67  133 1    
   134   69   70 1    
   135   69  134 1    
   136   69  135 1    
   137   70   71 1    
   138   71  136 1    
   139   71  137 1    
@<TRIPOS>SUBSTRUCTURE
     1 UNK         1 GROUP             0       ****    0 ROOT    
