@<TRIPOS>MOLECULE
3R137
137   139    1
SMALL
USER_CHARGES


@<TRIPOS>ATOM
      1 CA         29.9437    0.8030   -0.9013 C.3       0 UNK        -0.2020 
      2 C          29.3042   -0.4667   -1.4414 C.2       0 UNK         0.4855 
      3 O          28.9239   -0.5070   -2.6101 O.2       0 UNK        -0.5197 
      4 N          29.1813   -1.5030   -0.6027 N.am      1 UNK        -0.4892 
      5 CA         28.6057   -2.8065   -0.9503 C.3       1 UNK         0.0835 
      6 C6         29.1343   -3.9414   -0.0307 C.3       12 UNK        -0.0855 
      7 S7         30.9516   -4.1095   -0.0182 S.3       12 UNK        -0.2931 
      8 C8         31.2178   -5.4999   -1.1647 C.3       12 UNK         0.0378 
      9 C9         31.2687   -5.0214   -2.6069 C.ar      12 UNK        -0.0802 
     10 C10        32.4477   -4.4623   -3.1064 C.ar      12 UNK        -0.0944 
     11 C11        32.5125   -3.9946   -4.4209 C.ar      12 UNK        -0.0787 
     12 C12        31.3834   -4.0927   -5.2416 C.ar      12 UNK        -0.0862 
     13 C13        30.2036   -4.6728   -4.7617 C.ar      12 UNK        -0.0733 
     14 C14        30.1539   -5.1386   -3.4428 C.ar      12 UNK        -0.0832 
     15 C15        28.9979   -4.8378   -5.6800 C.3       12 UNK         0.0240 
     16 S16        27.5328   -3.9324   -5.0889 S.3       12 UNK        -0.2522 
     17 C17        27.9668   -2.2066   -5.4858 C.3       12 UNK        -0.0967 
     18 CA         27.1591   -1.6312   -6.6768 C.3       5 UNK         0.0660 
     19 N          25.7106   -1.7786   -6.5283 N.am      5 UNK        -0.4015 
     20 C          24.8333   -1.7096   -7.5399 C.2       4 UNK         0.4946 
     21 O          25.1572   -1.6102   -8.7235 O.2       4 UNK        -0.5353 
     22 CA         23.3381   -1.7365   -7.1738 C.3       4 UNK         0.0277 
     23 CB         22.8109   -3.1804   -7.1773 C.3       4 UNK        -0.1981 
     24 N          23.0484   -1.1163   -5.8780 N.am      4 UNK        -0.4209 
     25 C          23.2059    0.1872   -5.6034 C.2       3 UNK         0.4942 
     26 O          23.5578    1.0246   -6.4331 O.2       3 UNK        -0.5208 
     27 CA         22.9949    0.6144   -4.1389 C.3       3 UNK         0.0250 
     28 CB         21.5130    0.9246   -3.8748 C.3       3 UNK        -0.1990 
     29 N          23.4742   -0.3781   -3.1679 N.am      3 UNK        -0.4232 
     30 C          24.7393   -0.8138   -3.0902 C.2       2 UNK         0.4993 
     31 O          25.6468   -0.4078   -3.8199 O.2       2 UNK        -0.5286 
     32 CA         25.0186   -1.9397   -2.0918 C.3       2 UNK         0.0209 
     33 CB         24.4112   -3.2663   -2.5946 C.3       2 UNK        -0.1931 
     34 N          26.4639   -2.0836   -1.9216 N.am      2 UNK        -0.4546 
     35 C          27.0626   -2.7376   -0.9223 C.2       1 UNK         0.5154 
     36 O          26.4406   -3.2558    0.0083 O.2       1 UNK        -0.5181 
     37 C          27.4988   -0.1484   -6.8987 C.2       5 UNK         0.5014 
     38 O          28.2163    0.1722   -7.8445 O.2       5 UNK        -0.5248 
     39 N          26.9556    0.7384   -6.0499 N.am      6 UNK        -0.4434 
     40 CA         27.1373    2.1937   -6.1099 C.3       6 UNK         0.0363 
     41 CB         26.3828    2.8577   -4.9494 C.3       6 UNK        -0.1936 
     42 C          26.7207    2.8110   -7.4569 C.2       6 UNK         0.5081 
     43 O          27.4228    3.6868   -7.9618 O.2       6 UNK        -0.5248 
     44 N          25.6393    2.2915   -8.0553 N.am      7 UNK        -0.4718 
     45 CA         25.1784    2.6226   -9.4090 C.3       7 UNK         0.0273 
     46 CB         23.8345    1.9223   -9.6654 C.3       7 UNK        -0.1935 
     47 C          26.1842    2.2754  -10.5266 C.2       7 UNK         0.5018 
     48 O          26.1227    2.8847  -11.5948 O.2       7 UNK        -0.5186 
     49 N          27.0984    1.3330  -10.2606 N.am      8 UNK        -0.4240 
     50 CA         28.2083    0.9406  -11.1310 C.3       8 UNK         0.0235 
     51 CB         28.2464   -0.5969  -11.2155 C.3       8 UNK        -0.2000 
     52 C          29.5507    1.5207  -10.6366 C.2       8 UNK         0.4941 
     53 O          30.6021    0.9917  -10.9998 O.2       8 UNK        -0.5273 
     54 N          29.4986    2.5902   -9.8252 N.am      9 UNK        -0.4262 
     55 CA         30.6213    3.3121   -9.2125 C.3       9 UNK         0.0264 
     56 CB         31.5742    3.8992  -10.2769 C.3       9 UNK        -0.1955 
     57 C          31.3547    2.5118   -8.1180 C.2       9 UNK         0.5031 
     58 O          32.5497    2.7317   -7.9014 O.2       9 UNK        -0.5390 
     59 N          30.6224    1.6271   -7.4233 N.am      10 UNK        -0.4204 
     60 CA         31.0564    0.7946   -6.2984 C.3       10 UNK         0.0237 
     61 CB         31.3591    1.6537   -5.0490 C.3       10 UNK        -0.1985 
     62 C          32.1938   -0.1480   -6.7134 C.2       10 UNK         0.4970 
     63 O          31.9234   -1.1677   -7.3494 O.2       10 UNK        -0.4914 
     64 N          33.4265    0.2144   -6.3500 N.am      11 UNK        -0.4285 
     65 CA         34.6546   -0.5343   -6.6419 C.3       11 UNK         0.1007 
     66 C          35.6344    0.2578   -7.5542 C.2       11 UNK         0.5703 
     67 N          35.2547    1.4069   -8.1051 N.am      11 UNK        -0.7361 
     68 O          36.7580   -0.1844   -7.7828 O.2       11 UNK        -0.4986 
     69 C69        35.3396   -1.0551   -5.3442 C.3       12 UNK        -0.0947 
     70 S70        34.1841   -1.8120   -4.1470 S.3       12 UNK        -0.2240 
     71 C71        33.8076   -3.3981   -4.9534 C.3       12 UNK         0.0194 
     72 H72        29.2451    1.6356   -0.9786 H         1 UNK         0.0906 
     73 H73        30.8323    1.0490   -1.4821 H         1 UNK         0.0906 
     74 H74        30.2378    0.7004    0.1430 H         1 UNK         0.0906 
     75 H75        29.5057   -1.4148    0.3498 H         1 UNK         0.3140 
     76 H76        28.8969   -3.0502   -1.9747 H         1 UNK         0.1085 
     77 H77        28.8246   -3.7670    1.0017 H         1 UNK         0.0836 
     78 H78        28.6885   -4.8967   -0.3141 H         1 UNK         0.0836 
     79 H79        30.4487   -6.2617   -1.0293 H         1 UNK         0.0731 
     80 H80        32.1636   -5.9823   -0.9126 H         1 UNK         0.0731 
     81 H81        33.3150   -4.3771   -2.4656 H         1 UNK         0.1312 
     82 H82        31.4296   -3.7309   -6.2602 H         1 UNK         0.1406 
     83 H83        29.2432   -5.5867   -3.0689 H         1 UNK         0.1631 
     84 H84        28.7492   -5.8980   -5.7420 H         1 UNK         0.0717 
     85 H85        29.2294   -4.5194   -6.6978 H         1 UNK         0.0717 
     86 H86        27.7967   -1.6177   -4.5867 H         1 UNK         0.0934 
     87 H87        29.0382   -2.1365   -5.6838 H         1 UNK         0.0934 
     88 H88        27.4637   -2.1759   -7.5735 H         1 UNK         0.0739 
     89 H89        25.3669   -1.8163   -5.5798 H         1 UNK         0.3093 
     90 H90        22.8029   -1.1729   -7.9413 H         1 UNK         0.0818 
     91 H91        22.9921   -3.6582   -8.1413 H         1 UNK         0.0819 
     92 H92        23.2963   -3.7915   -6.4152 H         1 UNK         0.0819 
     93 H93        21.7356   -3.2116   -7.0003 H         1 UNK         0.0819 
     94 H94        22.7410   -1.7280   -5.1363 H         1 UNK         0.3041 
     95 H95        23.5662    1.5303   -3.9783 H         1 UNK         0.0784 
     96 H96        21.1419    1.6752   -4.5744 H         1 UNK         0.0793 
     97 H97        20.8863    0.0387   -3.9847 H         1 UNK         0.0793 
     98 H98        21.3632    1.3203   -2.8701 H         1 UNK         0.0793 
     99 H99        22.7847   -0.7625   -2.5374 H         1 UNK         0.3024 
    100 H100       24.5739   -1.6652   -1.1324 H         1 UNK         0.1171 
    101 H101       23.3320   -3.1864   -2.7289 H         1 UNK         0.0786 
    102 H102       24.8392   -3.5675   -3.5515 H         1 UNK         0.0786 
    103 H103       24.5805   -4.0781   -1.8872 H         1 UNK         0.0786 
    104 H104       27.0312   -1.5747   -2.5946 H         1 UNK         0.2977 
    105 H105       26.4037    0.3823   -5.2697 H         1 UNK         0.3127 
    106 H106       28.2022    2.3899   -5.9740 H         1 UNK         0.0770 
    107 H107       25.3052    2.7288   -5.0461 H         1 UNK         0.0814 
    108 H108       26.5807    3.9299   -4.9201 H         1 UNK         0.0814 
    109 H109       26.6870    2.4434   -3.9877 H         1 UNK         0.0814 
    110 H110       25.0738    1.6265   -7.5336 H         1 UNK         0.2983 
    111 H111       25.0169    3.7019   -9.4463 H         1 UNK         0.0947 
    112 H112       23.9293    0.8374   -9.6035 H         1 UNK         0.0806 
    113 H113       23.4493    2.1617  -10.6575 H         1 UNK         0.0806 
    114 H114       23.0805    2.2337   -8.9421 H         1 UNK         0.0806 
    115 H115       27.1057    0.9069   -9.3389 H         1 UNK         0.3000 
    116 H116       28.0491    1.3291  -12.1388 H         1 UNK         0.0850 
    117 H117       29.0034   -0.9340  -11.9246 H         1 UNK         0.0810 
    118 H118       27.2897   -0.9993  -11.5490 H         1 UNK         0.0810 
    119 H119       28.4793   -1.0476  -10.2500 H         1 UNK         0.0810 
    120 H120       28.5832    2.9285   -9.5472 H         1 UNK         0.3040 
    121 H121       30.1683    4.1573   -8.6922 H         1 UNK         0.0766 
    122 H122       32.1450    3.1217  -10.7850 H         1 UNK         0.0812 
    123 H123       32.2943    4.5801   -9.8216 H         1 UNK         0.0812 
    124 H124       31.0281    4.4650  -11.0315 H         1 UNK         0.0812 
    125 H125       29.6848    1.4175   -7.7559 H         1 UNK         0.3205 
    126 H126       30.2194    0.1483   -6.0370 H         1 UNK         0.0754 
    127 H127       31.6894    1.0293   -4.2172 H         1 UNK         0.0769 
    128 H128       30.4642    2.1782   -4.7141 H         1 UNK         0.0769 
    129 H129       32.1297    2.4036   -5.2291 H         1 UNK         0.0769 
    130 H130       33.5501    1.0949   -5.8727 H         1 UNK         0.2981 
    131 H131       34.4000   -1.4091   -7.2408 H         1 UNK         0.0541 
    132 H132       35.9014    1.9029   -8.6971 H         1 UNK         0.3459 
    133 H133       34.3201    1.7776   -7.9617 H         1 UNK         0.3459 
    134 H134       35.8411   -0.2333   -4.8301 H         1 UNK         0.0612 
    135 H135       36.1168   -1.7821   -5.5864 H         1 UNK         0.0612 
    136 H136       34.6316   -4.0925   -4.7843 H         1 UNK         0.0624 
    137 H137       33.7368   -3.2574   -6.0320 H         1 UNK         0.0624 
@<TRIPOS>BOND
     1    1    2 1    
     2    1   72 1    
     3    1   73 1    
     4    1   74 1    
     5    2    3 2    
     6    2    4 am   BACKBONE|DICT|INTERRES
     7    4    5 1    
     8    4   75 1    
     9    5    6 1    
    10    5   35 1    
    11    5   76 1    
    12    6    7 1    
    13    6   77 1    
    14    6   78 1    
    15    7    8 1    
    16    8    9 1    
    17    8   79 1    
    18    8   80 1    
    19    9   10 ar   
    20    9   14 ar   
    21   10   11 ar   
    22   10   81 1    
    23   11   12 ar   
    24   11   71 1    
    25   12   13 ar   
    26   12   82 1    
    27   13   14 ar   
    28   13   15 1    
    29   14   83 1    
    30   15   16 1    
    31   15   84 1    
    32   15   85 1    
    33   16   17 1    
    34   17   18 1    
    35   17   86 1    
    36   17   87 1    
    37   18   19 1    
    38   18   37 1    
    39   18   88 1    
    40   19   20 am   BACKBONE|DICT|INTERRES
    41   19   89 1    
    42   20   21 2    
    43   20   22 1    
    44   22   23 1    
    45   22   24 1    
    46   22   90 1    
    47   23   91 1    
    48   23   92 1    
    49   23   93 1    
    50   24   25 am   BACKBONE|DICT|INTERRES
    51   24   94 1    
    52   25   26 2    
    53   25   27 1    
    54   27   28 1    
    55   27   29 1    
    56   27   95 1    
    57   28   96 1    
    58   28   97 1    
    59   28   98 1    
    60   29   30 am   BACKBONE|DICT|INTERRES
    61   29   99 1    
    62   30   31 2    
    63   30   32 1    
    64   32   33 1    
    65   32   34 1    
    66   32  100 1    
    67   33  101 1    
    68   33  102 1    
    69   33  103 1    
    70   34   35 am   BACKBONE|DICT|INTERRES
    71   34  104 1    
    72   35   36 2    
    73   37   38 2    
    74   37   39 am   BACKBONE|DICT|INTERRES
    75   39   40 1    
    76   39  105 1    
    77   40   41 1    
    78   40   42 1    
    79   40  106 1    
    80   41  107 1    
    81   41  108 1    
    82   41  109 1    
    83   42   43 2    
    84   42   44 am   BACKBONE|DICT|INTERRES
    85   44   45 1    
    86   44  110 1    
    87   45   46 1    
    88   45   47 1    
    89   45  111 1    
    90   46  112 1    
    91   46  113 1    
    92   46  114 1    
    93   47   48 2    
    94   47   49 am   BACKBONE|DICT|INTERRES
    95   49   50 1    
    96   49  115 1    
    97   50   51 1    
    98   50   52 1    
    99   50  116 1    
   100   51  117 1    
   101   51  118 1    
   102   51  119 1    
   103   52   53 2    
   104   52   54 am   BACKBONE|DICT|INTERRES
   105   54   55 1    
   106   54  120 1    
   107   55   56 1    
   108   55   57 1    
   109   55  121 1    
   110   56  122 1    
   111   56  123 1    
   112   56  124 1    
   113   57   58 2    
   114   57   59 am   BACKBONE|DICT|INTERRES
   115   59   60 1    
   116   59  125 1    
   117   60   61 1    
   118   60   62 1    
   119   60  126 1    
   120   61  127 1    
   121   61  128 1    
   122   61  129 1    
   123   62   63 2    
   124   62   64 am   BACKBONE|DICT|INTERRES
   125   64   65 1    
   126   64  130 1    
   127   65   66 1    
   128   65   69 1    
   129   65  131 1    
   130   66   67 am   BACKBONE|DICT|INTERRES
   131   66   68 2    
   132   67  132 1    
   133   67  133 1    
   134   69   70 1    
   135   69  134 1    
   136   69  135 1    
   137   70   71 1    
   138   71  136 1    
   139   71  137 1    
@<TRIPOS>SUBSTRUCTURE
     1 UNK         1 GROUP             0       ****    0 ROOT    
