@<TRIPOS>MOLECULE
3R137
137   139    1
SMALL
USER_CHARGES


@<TRIPOS>ATOM
      1 CA         26.4335   -7.2045   -1.1676 C.3       0 UNK        -0.2020 
      2 C          26.3104   -5.7851   -0.6337 C.2       0 UNK         0.4855 
      3 O          25.4633   -5.5239    0.2217 O.2       0 UNK        -0.5197 
      4 N          27.1553   -4.8704   -1.1245 N.am      1 UNK        -0.4892 
      5 CA         27.1389   -3.4456   -0.7745 C.3       1 UNK         0.0835 
      6 C6         28.4712   -2.7536   -1.1417 C.3       12 UNK        -0.0855 
      7 S7         29.8612   -3.3602   -0.1247 S.3       12 UNK        -0.2931 
      8 C8         31.1049   -3.7966   -1.3913 C.3       12 UNK         0.0378 
      9 C9         31.4161   -2.6783   -2.3865 C.ar      12 UNK        -0.0802 
     10 C10        31.7340   -3.0107   -3.7062 C.ar      12 UNK        -0.0944 
     11 C11        31.9878   -2.0138   -4.6520 C.ar      12 UNK        -0.0787 
     12 C12        31.9198   -0.6705   -4.2729 C.ar      12 UNK        -0.0862 
     13 C13        31.6107   -0.3203   -2.9557 C.ar      12 UNK        -0.0733 
     14 C14        31.3821   -1.3283   -2.0151 C.ar      12 UNK        -0.0832 
     15 C15        31.5146    1.1419   -2.5351 C.3       12 UNK         0.0240 
     16 S16        30.3411    2.1209   -3.5339 S.3       12 UNK        -0.2522 
     17 C17        28.8067    1.1254   -3.5113 C.3       12 UNK        -0.0967 
     18 CA         28.3454    0.7761   -4.9512 C.3       5 UNK         0.0660 
     19 N          27.5759   -0.4703   -5.0009 N.am      5 UNK        -0.4015 
     20 C          27.3337   -1.1619   -6.1247 C.2       4 UNK         0.4946 
     21 O          27.7207   -0.8229   -7.2423 O.2       4 UNK        -0.5353 
     22 CA         26.4534   -2.4145   -5.9830 C.3       4 UNK         0.0277 
     23 CB         27.2187   -3.5589   -5.2978 C.3       4 UNK        -0.1981 
     24 N          25.2109   -2.1370   -5.2583 N.am      4 UNK        -0.4209 
     25 C          24.2540   -1.3070   -5.7035 C.2       3 UNK         0.4942 
     26 O          24.2987   -0.7327   -6.7905 O.2       3 UNK        -0.5208 
     27 CA         23.0536   -1.0383   -4.7798 C.3       3 UNK         0.0250 
     28 CB         21.9113   -2.0172   -5.0945 C.3       3 UNK        -0.1990 
     29 N          23.3574   -1.0977   -3.3495 N.am      3 UNK        -0.4232 
     30 C          24.3139   -0.4175   -2.7007 C.2       2 UNK         0.4993 
     31 O          25.0994    0.3643   -3.2419 O.2       2 UNK        -0.5286 
     32 CA         24.4447   -0.6973   -1.1914 C.3       2 UNK         0.0209 
     33 CB         23.1616   -1.2783   -0.5546 C.3       2 UNK        -0.1931 
     34 N          25.5888   -1.5575   -0.8586 N.am      2 UNK        -0.4546 
     35 C          25.9481   -2.7177   -1.4329 C.2       1 UNK         0.5154 
     36 O          25.4096   -3.1952   -2.4370 O.2       1 UNK        -0.5181 
     37 C          27.5765    1.9465   -5.6004 C.2       5 UNK         0.5014 
     38 O          28.1951    2.8036   -6.2323 O.2       5 UNK        -0.5248 
     39 N          26.2422    1.9622   -5.4486 N.am      6 UNK        -0.4434 
     40 CA         25.3581    2.9566   -6.0631 C.3       6 UNK         0.0363 
     41 CB         23.9363    2.8087   -5.5027 C.3       6 UNK        -0.1936 
     42 C          25.3403    2.8877   -7.6014 C.2       6 UNK         0.5081 
     43 O          25.2123    3.9319   -8.2417 O.2       6 UNK        -0.5248 
     44 N          25.4726    1.6781   -8.1678 N.am      7 UNK        -0.4718 
     45 CA         25.5804    1.4487   -9.6106 C.3       7 UNK         0.0273 
     46 CB         25.4290   -0.0494   -9.9203 C.3       7 UNK        -0.1935 
     47 C          26.8897    2.0051  -10.1937 C.2       7 UNK         0.5018 
     48 O          26.8441    2.7154  -11.1993 O.2       7 UNK        -0.5186 
     49 N          28.0194    1.7030   -9.5417 N.am      8 UNK        -0.4240 
     50 CA         29.3425    2.2318   -9.8636 C.3       8 UNK         0.0235 
     51 CB         29.8910    1.5954  -11.1576 C.3       8 UNK        -0.2000 
     52 C          30.2797    1.9345   -8.6930 C.2       8 UNK         0.4941 
     53 O          30.2787    0.8078   -8.1997 O.2       8 UNK        -0.5273 
     54 N          31.1231    2.9052   -8.3169 N.am      9 UNK        -0.4262 
     55 CA         32.1066    2.7675   -7.2325 C.3       9 UNK         0.0264 
     56 CB         32.7380    4.1377   -6.9389 C.3       9 UNK        -0.1955 
     57 C          33.1991    1.7128   -7.5009 C.2       9 UNK         0.5031 
     58 O          33.7874    1.1981   -6.5505 O.2       9 UNK        -0.5390 
     59 N          33.4406    1.4031   -8.7811 N.am      10 UNK        -0.4204 
     60 CA         34.3223    0.3260   -9.2335 C.3       10 UNK         0.0237 
     61 CB         35.0303    0.7832  -10.5214 C.3       10 UNK        -0.1985 
     62 C          33.5756   -1.0021   -9.4725 C.2       10 UNK         0.4970 
     63 O          34.2372   -1.9977   -9.7680 O.2       10 UNK        -0.4914 
     64 N          32.2355   -1.0033   -9.3771 N.am      11 UNK        -0.4285 
     65 CA         31.3392   -2.1371   -9.6729 C.3       11 UNK         0.1007 
     66 C          31.3843   -2.6429  -11.1496 C.2       11 UNK         0.5703 
     67 N          31.8579   -1.8501  -12.1044 N.am      11 UNK        -0.7361 
     68 O          30.9509   -3.7532  -11.4493 O.2       11 UNK        -0.4986 
     69 C69        31.4519   -3.2796   -8.6223 C.3       12 UNK        -0.0947 
     70 S70        30.7950   -2.7738   -7.0006 S.3       12 UNK        -0.2240 
     71 C71        32.3151   -2.3941   -6.0857 C.3       12 UNK         0.0194 
     72 H72        25.4996   -7.5094   -1.6390 H         1 UNK         0.0906 
     73 H73        27.2307   -7.2958   -1.9052 H         1 UNK         0.0906 
     74 H74        26.6457   -7.8954   -0.3521 H         1 UNK         0.0906 
     75 H75        27.8200   -5.1383   -1.8350 H         1 UNK         0.3140 
     76 H76        27.0004   -3.3710    0.3069 H         1 UNK         0.1085 
     77 H77        28.4121   -1.6749   -0.9833 H         1 UNK         0.0836 
     78 H78        28.6891   -2.8893   -2.2022 H         1 UNK         0.0836 
     79 H79        30.7497   -4.6820   -1.9212 H         1 UNK         0.0731 
     80 H80        32.0293   -4.0859   -0.8900 H         1 UNK         0.0731 
     81 H81        31.7698   -4.0490   -4.0074 H         1 UNK         0.1312 
     82 H82        32.0912    0.1050   -5.0053 H         1 UNK         0.1406 
     83 H83        31.1521   -1.0582   -0.9937 H         1 UNK         0.1631 
     84 H84        32.5033    1.5958   -2.6135 H         1 UNK         0.0717 
     85 H85        31.2219    1.2249   -1.4873 H         1 UNK         0.0717 
     86 H86        28.9855    0.2135   -2.9414 H         1 UNK         0.0934 
     87 H87        28.0332    1.6630   -2.9587 H         1 UNK         0.0934 
     88 H88        29.2361    0.6025   -5.5611 H         1 UNK         0.0739 
     89 H89        27.1379   -0.7698   -4.1423 H         1 UNK         0.3093 
     90 H90        26.1839   -2.7443   -6.9888 H         1 UNK         0.0818 
     91 H91        28.1255   -3.8057   -5.8512 H         1 UNK         0.0819 
     92 H92        26.6144   -4.4646   -5.2456 H         1 UNK         0.0819 
     93 H93        27.5182   -3.2994   -4.2830 H         1 UNK         0.0819 
     94 H94        25.1087   -2.5543   -4.3371 H         1 UNK         0.3041 
     95 H95        22.6958   -0.0301   -4.9869 H         1 UNK         0.0784 
     96 H96        21.6438   -1.9779   -6.1516 H         1 UNK         0.0793 
     97 H97        22.1884   -3.0473   -4.8664 H         1 UNK         0.0793 
     98 H98        21.0123   -1.7762   -4.5268 H         1 UNK         0.0793 
     99 H99        22.8051   -1.7450   -2.8064 H         1 UNK         0.3024 
    100 H100       24.6322    0.2730   -0.7278 H         1 UNK         0.1171 
    101 H101       23.2467   -1.3056    0.5319 H         1 UNK         0.0786 
    102 H102       22.2889   -0.6659   -0.7871 H         1 UNK         0.0786 
    103 H103       22.9574   -2.2966   -0.8884 H         1 UNK         0.0786 
    104 H104       26.1374   -1.2378   -0.0720 H         1 UNK         0.2977 
    105 H105       25.8084    1.2642   -4.8503 H         1 UNK         0.3127 
    106 H106       25.7321    3.9429   -5.7800 H         1 UNK         0.0770 
    107 H107       23.4662    1.8908   -5.8516 H         1 UNK         0.0814 
    108 H108       23.3053    3.6363   -5.8290 H         1 UNK         0.0814 
    109 H109       23.9297    2.8036   -4.4125 H         1 UNK         0.0814 
    110 H110       25.5034    0.8579   -7.5718 H         1 UNK         0.2983 
    111 H111       24.7548    1.9758  -10.0939 H         1 UNK         0.0947 
    112 H112       25.4942   -0.2346  -10.9932 H         1 UNK         0.0806 
    113 H113       24.4630   -0.4266   -9.5842 H         1 UNK         0.0806 
    114 H114       26.2045   -0.6451   -9.4384 H         1 UNK         0.0806 
    115 H115       27.9839    1.1054   -8.7210 H         1 UNK         0.3000 
    116 H116       29.2633    3.3134   -9.9921 H         1 UNK         0.0850 
    117 H117       30.9025    1.9434  -11.3699 H         1 UNK         0.0810 
    118 H118       29.2792    1.8509  -12.0226 H         1 UNK         0.0810 
    119 H119       29.9256    0.5076  -11.0858 H         1 UNK         0.0810 
    120 H120       31.0748    3.8048   -8.7744 H         1 UNK         0.3040 
    121 H121       31.5645    2.4447   -6.3409 H         1 UNK         0.0766 
    122 H122       31.9828    4.8681   -6.6480 H         1 UNK         0.0812 
    123 H123       33.2741    4.5306   -7.8037 H         1 UNK         0.0812 
    124 H124       33.4513    4.0691   -6.1162 H         1 UNK         0.0812 
    125 H125       32.9306    1.9045   -9.4934 H         1 UNK         0.3205 
    126 H126       35.0868    0.1340   -8.4776 H         1 UNK         0.0754 
    127 H127       35.7316    0.0256  -10.8744 H         1 UNK         0.0769 
    128 H128       35.6028    1.6961  -10.3552 H         1 UNK         0.0769 
    129 H129       34.3223    0.9732  -11.3289 H         1 UNK         0.0769 
    130 H130       31.7551   -0.1759   -9.0393 H         1 UNK         0.2981 
    131 H131       30.3328   -1.7256   -9.5841 H         1 UNK         0.0541 
    132 H132       32.2118   -0.9346  -11.8835 H         1 UNK         0.3459 
    133 H133       31.8711   -2.1817  -13.0559 H         1 UNK         0.3459 
    134 H134       30.8637   -4.1475   -8.9238 H         1 UNK         0.0612 
    135 H135       32.4790   -3.6333   -8.5250 H         1 UNK         0.0612 
    136 H136       32.9780   -3.2604   -6.0989 H         1 UNK         0.0624 
    137 H137       32.8471   -1.5822   -6.5828 H         1 UNK         0.0624 
@<TRIPOS>BOND
     1    1    2 1    
     2    1   72 1    
     3    1   73 1    
     4    1   74 1    
     5    2    3 2    
     6    2    4 am   BACKBONE|DICT|INTERRES
     7    4    5 1    
     8    4   75 1    
     9    5    6 1    
    10    5   35 1    
    11    5   76 1    
    12    6    7 1    
    13    6   77 1    
    14    6   78 1    
    15    7    8 1    
    16    8    9 1    
    17    8   79 1    
    18    8   80 1    
    19    9   10 ar   
    20    9   14 ar   
    21   10   11 ar   
    22   10   81 1    
    23   11   12 ar   
    24   11   71 1    
    25   12   13 ar   
    26   12   82 1    
    27   13   14 ar   
    28   13   15 1    
    29   14   83 1    
    30   15   16 1    
    31   15   84 1    
    32   15   85 1    
    33   16   17 1    
    34   17   18 1    
    35   17   86 1    
    36   17   87 1    
    37   18   19 1    
    38   18   37 1    
    39   18   88 1    
    40   19   20 am   BACKBONE|DICT|INTERRES
    41   19   89 1    
    42   20   21 2    
    43   20   22 1    
    44   22   23 1    
    45   22   24 1    
    46   22   90 1    
    47   23   91 1    
    48   23   92 1    
    49   23   93 1    
    50   24   25 am   BACKBONE|DICT|INTERRES
    51   24   94 1    
    52   25   26 2    
    53   25   27 1    
    54   27   28 1    
    55   27   29 1    
    56   27   95 1    
    57   28   96 1    
    58   28   97 1    
    59   28   98 1    
    60   29   30 am   BACKBONE|DICT|INTERRES
    61   29   99 1    
    62   30   31 2    
    63   30   32 1    
    64   32   33 1    
    65   32   34 1    
    66   32  100 1    
    67   33  101 1    
    68   33  102 1    
    69   33  103 1    
    70   34   35 am   BACKBONE|DICT|INTERRES
    71   34  104 1    
    72   35   36 2    
    73   37   38 2    
    74   37   39 am   BACKBONE|DICT|INTERRES
    75   39   40 1    
    76   39  105 1    
    77   40   41 1    
    78   40   42 1    
    79   40  106 1    
    80   41  107 1    
    81   41  108 1    
    82   41  109 1    
    83   42   43 2    
    84   42   44 am   BACKBONE|DICT|INTERRES
    85   44   45 1    
    86   44  110 1    
    87   45   46 1    
    88   45   47 1    
    89   45  111 1    
    90   46  112 1    
    91   46  113 1    
    92   46  114 1    
    93   47   48 2    
    94   47   49 am   BACKBONE|DICT|INTERRES
    95   49   50 1    
    96   49  115 1    
    97   50   51 1    
    98   50   52 1    
    99   50  116 1    
   100   51  117 1    
   101   51  118 1    
   102   51  119 1    
   103   52   53 2    
   104   52   54 am   BACKBONE|DICT|INTERRES
   105   54   55 1    
   106   54  120 1    
   107   55   56 1    
   108   55   57 1    
   109   55  121 1    
   110   56  122 1    
   111   56  123 1    
   112   56  124 1    
   113   57   58 2    
   114   57   59 am   BACKBONE|DICT|INTERRES
   115   59   60 1    
   116   59  125 1    
   117   60   61 1    
   118   60   62 1    
   119   60  126 1    
   120   61  127 1    
   121   61  128 1    
   122   61  129 1    
   123   62   63 2    
   124   62   64 am   BACKBONE|DICT|INTERRES
   125   64   65 1    
   126   64  130 1    
   127   65   66 1    
   128   65   69 1    
   129   65  131 1    
   130   66   67 am   BACKBONE|DICT|INTERRES
   131   66   68 2    
   132   67  132 1    
   133   67  133 1    
   134   69   70 1    
   135   69  134 1    
   136   69  135 1    
   137   70   71 1    
   138   71  136 1    
   139   71  137 1    
@<TRIPOS>SUBSTRUCTURE
     1 UNK         1 GROUP             0       ****    0 ROOT    
