@<TRIPOS>MOLECULE
3R137
137   139    1
SMALL
USER_CHARGES


@<TRIPOS>ATOM
      1 CA         25.3037   -3.7075   -0.8837 C.3       0 UNK        -0.2020 
      2 C          26.3235   -4.1158   -1.9439 C.2       0 UNK         0.4855 
      3 O          26.0517   -5.0288   -2.7194 O.2       0 UNK        -0.5197 
      4 N          27.5074   -3.4924   -2.0137 N.am      1 UNK        -0.4892 
      5 CA         27.9563   -2.3431   -1.2220 C.3       1 UNK         0.0835 
      6 C6         29.4943   -2.1840   -1.2846 C.3       12 UNK        -0.0855 
      7 S7         30.3792   -3.3637   -0.2019 S.3       12 UNK        -0.2931 
      8 C8         30.4447   -4.9197   -1.1598 C.3       12 UNK         0.0378 
      9 C9         30.8795   -4.7275   -2.6067 C.ar      12 UNK        -0.0802 
     10 C10        32.0894   -4.0942   -2.9114 C.ar      12 UNK        -0.0944 
     11 C11        32.4490   -3.8568   -4.2413 C.ar      12 UNK        -0.0787 
     12 C12        31.6037   -4.2806   -5.2695 C.ar      12 UNK        -0.0862 
     13 C13        30.4001   -4.9277   -4.9778 C.ar      12 UNK        -0.0733 
     14 C14        30.0511   -5.1636   -3.6453 C.ar      12 UNK        -0.0832 
     15 C15        29.4552   -5.3264   -6.1035 C.3       12 UNK         0.0240 
     16 S16        27.8518   -4.4669   -5.9820 S.3       12 UNK        -0.2522 
     17 C17        28.3593   -2.7146   -5.9005 C.3       12 UNK        -0.0967 
     18 CA         27.6329   -1.8357   -6.9411 C.3       5 UNK         0.0660 
     19 N          26.1746   -1.9010   -6.7994 N.am      5 UNK        -0.4015 
     20 C          25.2979   -1.3803   -7.6680 C.2       4 UNK         0.4946 
     21 O          25.6233   -0.7912   -8.6969 O.2       4 UNK        -0.5353 
     22 CA         23.8045   -1.5010   -7.3175 C.3       4 UNK         0.0277 
     23 CB         23.2381   -2.8296   -7.8431 C.3       4 UNK        -0.1981 
     24 N          23.5020   -1.3697   -5.8872 N.am      4 UNK        -0.4209 
     25 C          23.8376   -0.3281   -5.1121 C.2       3 UNK         0.4942 
     26 O          24.4949    0.6348   -5.5149 O.2       3 UNK        -0.5208 
     27 CA         23.3977   -0.3677   -3.6404 C.3       3 UNK         0.0250 
     28 CB         22.8405   -1.7300   -3.1699 C.3       3 UNK        -0.1990 
     29 N          24.5486    0.0032   -2.8277 N.am      3 UNK        -0.4232 
     30 C          24.5375    0.6614   -1.6674 C.2       2 UNK         0.4993 
     31 O          23.5075    1.0192   -1.0923 O.2       2 UNK        -0.5286 
     32 CA         25.9227    0.9423   -1.0429 C.3       2 UNK         0.0209 
     33 CB         25.8271    1.7412    0.2709 C.3       2 UNK        -0.1931 
     34 N          26.6956   -0.2825   -0.7958 N.am      2 UNK        -0.4546 
     35 C          27.2564   -1.0673   -1.7276 C.2       1 UNK         0.5154 
     36 O          27.2173   -0.8289   -2.9389 O.2       1 UNK        -0.5181 
     37 C          28.1590   -0.3887   -6.8717 C.2       5 UNK         0.5014 
     38 O          29.0220   -0.0170   -7.6691 O.2       5 UNK        -0.5248 
     39 N          27.6214    0.4053   -5.9353 N.am      6 UNK        -0.4434 
     40 CA         27.9267    1.8280   -5.7888 C.3       6 UNK         0.0363 
     41 CB         27.4477    2.3283   -4.4185 C.3       6 UNK        -0.1936 
     42 C          27.3237    2.6673   -6.9244 C.2       6 UNK         0.5081 
     43 O          27.9901    3.5810   -7.4086 O.2       6 UNK        -0.5248 
     44 N          26.1033    2.3220   -7.3621 N.am      7 UNK        -0.4718 
     45 CA         25.4267    2.9442   -8.5065 C.3       7 UNK         0.0273 
     46 CB         23.9758    2.4447   -8.5875 C.3       7 UNK        -0.1935 
     47 C          26.1651    2.7081   -9.8376 C.2       7 UNK         0.5018 
     48 O          26.2833    3.6366  -10.6380 O.2       7 UNK        -0.5186 
     49 N          26.6828    1.4865  -10.0298 N.am      8 UNK        -0.4240 
     50 CA         27.5467    1.1029  -11.1510 C.3       8 UNK         0.0235 
     51 CB         27.5719   -0.4316  -11.2565 C.3       8 UNK        -0.2000 
     52 C          28.9844    1.6467  -11.0383 C.2       8 UNK         0.4941 
     53 O          29.7146    1.5957  -12.0295 O.2       8 UNK        -0.5273 
     54 N          29.3659    2.1338   -9.8467 N.am      9 UNK        -0.4262 
     55 CA         30.6891    2.6286   -9.4549 C.3       9 UNK         0.0264 
     56 CB         31.0442    3.9232  -10.2183 C.3       9 UNK        -0.1955 
     57 C          31.7756    1.5405   -9.5561 C.2       9 UNK         0.5031 
     58 O          32.8496    1.7889  -10.1079 O.2       9 UNK        -0.5390 
     59 N          31.4764    0.3508   -9.0128 N.am      10 UNK        -0.4204 
     60 CA         32.3633   -0.8195   -9.0113 C.3       10 UNK         0.0237 
     61 CB         31.5836   -2.0432   -8.5028 C.3       10 UNK        -0.1985 
     62 C          33.6506   -0.6256   -8.1863 C.2       10 UNK         0.4970 
     63 O          34.6878   -1.1856   -8.5465 O.2       10 UNK        -0.4914 
     64 N          33.5591    0.1592   -7.1070 N.am      11 UNK        -0.4285 
     65 CA         34.6582    0.4829   -6.1831 C.3       11 UNK         0.1007 
     66 C          34.4817    1.8646   -5.4851 C.2       11 UNK         0.5703 
     67 N          33.6466    2.7635   -5.9990 N.am      11 UNK        -0.7361 
     68 O          35.1244    2.1448   -4.4761 O.2       11 UNK        -0.4986 
     69 C69        34.9944   -0.6850   -5.2094 C.3       12 UNK        -0.0947 
     70 S70        33.5423   -1.3277   -4.3054 S.3       12 UNK        -0.2240 
     71 C71        33.7344   -3.1176   -4.5726 C.3       12 UNK         0.0194 
     72 H72        24.9339   -2.6986   -1.0606 H         1 UNK         0.0906 
     73 H73        24.4452   -4.3790   -0.9059 H         1 UNK         0.0906 
     74 H74        25.7323   -3.7597    0.1167 H         1 UNK         0.0906 
     75 H75        28.1417   -3.7651   -2.7494 H         1 UNK         0.3140 
     76 H76        27.6772   -2.5010   -0.1785 H         1 UNK         0.1085 
     77 H77        29.8595   -2.2480   -2.3113 H         1 UNK         0.0836 
     78 H78        29.7875   -1.1903   -0.9386 H         1 UNK         0.0836 
     79 H79        29.4651   -5.3975   -1.1090 H         1 UNK         0.0731 
     80 H80        31.1401   -5.6032   -0.6708 H         1 UNK         0.0731 
     81 H81        32.7327   -3.7510   -2.1124 H         1 UNK         0.1312 
     82 H82        31.8751   -4.0883   -6.2981 H         1 UNK         0.1406 
     83 H83        29.1153   -5.6602   -3.4238 H         1 UNK         0.1631 
     84 H84        29.2862   -6.4035   -6.0682 H         1 UNK         0.0717 
     85 H85        29.8955   -5.1132   -7.0789 H         1 UNK         0.0717 
     86 H86        28.1730   -2.3573   -4.8864 H         1 UNK         0.0934 
     87 H87        29.4369   -2.6392   -6.0495 H         1 UNK         0.0934 
     88 H88        27.8789   -2.2164   -7.9351 H         1 UNK         0.0739 
     89 H89        25.8240   -2.3930   -5.9911 H         1 UNK         0.3093 
     90 H90        23.2859   -0.6884   -7.8291 H         1 UNK         0.0818 
     91 H91        22.1577   -2.8836   -7.7074 H         1 UNK         0.0819 
     92 H92        23.4332   -2.9410   -8.9110 H         1 UNK         0.0819 
     93 H93        23.6844   -3.6882   -7.3395 H         1 UNK         0.0819 
     94 H94        22.9669   -2.1178   -5.4700 H         1 UNK         0.3041 
     95 H95        22.6196    0.3903   -3.5262 H         1 UNK         0.0784 
     96 H96        21.9318   -1.9987   -3.7103 H         1 UNK         0.0793 
     97 H97        23.5649   -2.5356   -3.3019 H         1 UNK         0.0793 
     98 H98        22.5756   -1.6985   -2.1127 H         1 UNK         0.0793 
     99 H99        25.4590   -0.2498   -3.2054 H         1 UNK         0.3024 
    100 H100       26.4721    1.5567   -1.7578 H         1 UNK         0.1171 
    101 H101       26.8159    1.9899    0.6578 H         1 UNK         0.0786 
    102 H102       25.2965    2.6827    0.1191 H         1 UNK         0.0786 
    103 H103       25.2928    1.1867    1.0435 H         1 UNK         0.0786 
    104 H104       26.7656   -0.5608    0.1728 H         1 UNK         0.2977 
    105 H105       26.9167    0.0269   -5.3186 H         1 UNK         0.3127 
    106 H106       29.0118    1.9481   -5.8296 H         1 UNK         0.0770 
    107 H107       26.3727    2.1954   -4.2899 H         1 UNK         0.0814 
    108 H108       27.6633    3.3904   -4.2940 H         1 UNK         0.0814 
    109 H109       27.9561    1.7988   -3.6129 H         1 UNK         0.0814 
    110 H110       25.6010    1.5889   -6.8684 H         1 UNK         0.2983 
    111 H111       25.4054    4.0218   -8.3286 H         1 UNK         0.0947 
    112 H112       23.4299    2.9658   -9.3752 H         1 UNK         0.0806 
    113 H113       23.4417    2.6165   -7.6522 H         1 UNK         0.0806 
    114 H114       23.9280    1.3791   -8.8106 H         1 UNK         0.0806 
    115 H115       26.4545    0.7507   -9.3632 H         1 UNK         0.3000 
    116 H116       27.1162    1.5048  -12.0707 H         1 UNK         0.0850 
    117 H117       28.1749   -0.7582  -12.1051 H         1 UNK         0.0810 
    118 H118       26.5693   -0.8364  -11.3966 H         1 UNK         0.0810 
    119 H119       27.9941   -0.8878  -10.3597 H         1 UNK         0.0810 
    120 H120       28.6806    2.1174   -9.1020 H         1 UNK         0.3040 
    121 H121       30.6134    2.8846   -8.3965 H         1 UNK         0.0766 
    122 H122       31.1789    3.7425  -11.2858 H         1 UNK         0.0812 
    123 H123       31.9724    4.3559   -9.8426 H         1 UNK         0.0812 
    124 H124       30.2653    4.6770  -10.1011 H         1 UNK         0.0812 
    125 H125       30.5610    0.2321   -8.5760 H         1 UNK         0.3205 
    126 H126       32.6609   -1.0085  -10.0454 H         1 UNK         0.0754 
    127 H127       32.1983   -2.9436   -8.5473 H         1 UNK         0.0769 
    128 H128       30.6931   -2.2270   -9.1053 H         1 UNK         0.0769 
    129 H129       31.2669   -1.9117   -7.4673 H         1 UNK         0.0769 
    130 H130       32.6593    0.5463   -6.8619 H         1 UNK         0.2981 
    131 H131       35.5479    0.6357   -6.7979 H         1 UNK         0.0541 
    132 H132       33.1856    2.6039   -6.8780 H         1 UNK         0.3459 
    133 H133       33.5504    3.6552   -5.5370 H         1 UNK         0.3459 
    134 H134       35.7553   -0.3911   -4.4842 H         1 UNK         0.0612 
    135 H135       35.4484   -1.4962   -5.7806 H         1 UNK         0.0612 
    136 H136       34.0149   -3.3055   -5.6107 H         1 UNK         0.0624 
    137 H137       34.5523   -3.4912   -3.9547 H         1 UNK         0.0624 
@<TRIPOS>BOND
     1    1    2 1    
     2    1   72 1    
     3    1   73 1    
     4    1   74 1    
     5    2    3 2    
     6    2    4 am   BACKBONE|DICT|INTERRES
     7    4    5 1    
     8    4   75 1    
     9    5    6 1    
    10    5   35 1    
    11    5   76 1    
    12    6    7 1    
    13    6   77 1    
    14    6   78 1    
    15    7    8 1    
    16    8    9 1    
    17    8   79 1    
    18    8   80 1    
    19    9   10 ar   
    20    9   14 ar   
    21   10   11 ar   
    22   10   81 1    
    23   11   12 ar   
    24   11   71 1    
    25   12   13 ar   
    26   12   82 1    
    27   13   14 ar   
    28   13   15 1    
    29   14   83 1    
    30   15   16 1    
    31   15   84 1    
    32   15   85 1    
    33   16   17 1    
    34   17   18 1    
    35   17   86 1    
    36   17   87 1    
    37   18   19 1    
    38   18   37 1    
    39   18   88 1    
    40   19   20 am   BACKBONE|DICT|INTERRES
    41   19   89 1    
    42   20   21 2    
    43   20   22 1    
    44   22   23 1    
    45   22   24 1    
    46   22   90 1    
    47   23   91 1    
    48   23   92 1    
    49   23   93 1    
    50   24   25 am   BACKBONE|DICT|INTERRES
    51   24   94 1    
    52   25   26 2    
    53   25   27 1    
    54   27   28 1    
    55   27   29 1    
    56   27   95 1    
    57   28   96 1    
    58   28   97 1    
    59   28   98 1    
    60   29   30 am   BACKBONE|DICT|INTERRES
    61   29   99 1    
    62   30   31 2    
    63   30   32 1    
    64   32   33 1    
    65   32   34 1    
    66   32  100 1    
    67   33  101 1    
    68   33  102 1    
    69   33  103 1    
    70   34   35 am   BACKBONE|DICT|INTERRES
    71   34  104 1    
    72   35   36 2    
    73   37   38 2    
    74   37   39 am   BACKBONE|DICT|INTERRES
    75   39   40 1    
    76   39  105 1    
    77   40   41 1    
    78   40   42 1    
    79   40  106 1    
    80   41  107 1    
    81   41  108 1    
    82   41  109 1    
    83   42   43 2    
    84   42   44 am   BACKBONE|DICT|INTERRES
    85   44   45 1    
    86   44  110 1    
    87   45   46 1    
    88   45   47 1    
    89   45  111 1    
    90   46  112 1    
    91   46  113 1    
    92   46  114 1    
    93   47   48 2    
    94   47   49 am   BACKBONE|DICT|INTERRES
    95   49   50 1    
    96   49  115 1    
    97   50   51 1    
    98   50   52 1    
    99   50  116 1    
   100   51  117 1    
   101   51  118 1    
   102   51  119 1    
   103   52   53 2    
   104   52   54 am   BACKBONE|DICT|INTERRES
   105   54   55 1    
   106   54  120 1    
   107   55   56 1    
   108   55   57 1    
   109   55  121 1    
   110   56  122 1    
   111   56  123 1    
   112   56  124 1    
   113   57   58 2    
   114   57   59 am   BACKBONE|DICT|INTERRES
   115   59   60 1    
   116   59  125 1    
   117   60   61 1    
   118   60   62 1    
   119   60  126 1    
   120   61  127 1    
   121   61  128 1    
   122   61  129 1    
   123   62   63 2    
   124   62   64 am   BACKBONE|DICT|INTERRES
   125   64   65 1    
   126   64  130 1    
   127   65   66 1    
   128   65   69 1    
   129   65  131 1    
   130   66   67 am   BACKBONE|DICT|INTERRES
   131   66   68 2    
   132   67  132 1    
   133   67  133 1    
   134   69   70 1    
   135   69  134 1    
   136   69  135 1    
   137   70   71 1    
   138   71  136 1    
   139   71  137 1    
@<TRIPOS>SUBSTRUCTURE
     1 UNK         1 GROUP             0       ****    0 ROOT    
