@<TRIPOS>MOLECULE
3R137
137   139    1
SMALL
USER_CHARGES


@<TRIPOS>ATOM
      1 CA         25.7186   -6.0406   -1.7636 C.3       0 UNK        -0.2020 
      2 C          26.8632   -5.9983   -2.7723 C.2       0 UNK         0.4855 
      3 O          26.8381   -6.7529   -3.7417 O.2       0 UNK        -0.5197 
      4 N          27.8871   -5.1527   -2.5956 N.am      1 UNK        -0.4892 
      5 CA         28.0267   -4.1152   -1.5701 C.3       1 UNK         0.0835 
      6 C6         29.5257   -3.8432   -1.2851 C.3       12 UNK        -0.0855 
      7 S7         29.8033   -2.9563    0.2864 S.3       12 UNK        -0.2931 
      8 C8         31.4971   -2.3072    0.0555 C.3       12 UNK         0.0378 
      9 C9         31.5943   -1.3683   -1.1400 C.ar      12 UNK        -0.0802 
     10 C10        32.4348   -1.6686   -2.2162 C.ar      12 UNK        -0.0944 
     11 C11        32.4479   -0.8558   -3.3549 C.ar      12 UNK        -0.0787 
     12 C12        31.6139    0.2649   -3.4120 C.ar      12 UNK        -0.0862 
     13 C13        30.7800    0.5817   -2.3360 C.ar      12 UNK        -0.0733 
     14 C14        30.7989   -0.2223   -1.1926 C.ar      12 UNK        -0.0832 
     15 C15        29.8080    1.7480   -2.4249 C.3       12 UNK         0.0240 
     16 S16        28.1058    1.1394   -2.2233 S.3       12 UNK        -0.2522 
     17 C17        27.1502    2.1561   -3.3856 C.3       12 UNK        -0.0967 
     18 CA         27.3781    1.8141   -4.8821 C.3       5 UNK         0.0660 
     19 N          27.4800    0.3754   -5.1736 N.am      5 UNK        -0.4015 
     20 C          27.7808   -0.1482   -6.3739 C.2       4 UNK         0.4946 
     21 O          28.0345    0.5259   -7.3716 O.2       4 UNK        -0.5353 
     22 CA         27.7661   -1.6741   -6.5094 C.3       4 UNK         0.0277 
     23 CB         29.1055   -2.2727   -6.0525 C.3       4 UNK        -0.1981 
     24 N          26.6524   -2.2568   -5.7622 N.am      4 UNK        -0.4209 
     25 C          25.3785   -2.2233   -6.1856 C.2       3 UNK         0.4942 
     26 O          25.0390   -1.7914   -7.2873 O.2       3 UNK        -0.5208 
     27 CA         24.2895   -2.7268   -5.2197 C.3       3 UNK         0.0250 
     28 CB         24.0021   -4.2167   -5.4655 C.3       3 UNK        -0.1990 
     29 N          24.6149   -2.5266   -3.8063 N.am      3 UNK        -0.4232 
     30 C          24.8087   -1.3384   -3.2170 C.2       2 UNK         0.4993 
     31 O          24.6726   -0.2577   -3.7933 O.2       2 UNK        -0.5286 
     32 CA         25.2915   -1.3673   -1.7531 C.3       2 UNK         0.0209 
     33 CB         24.0883   -1.3454   -0.7974 C.3       2 UNK        -0.1931 
     34 N          26.1671   -2.5013   -1.4075 N.am      2 UNK        -0.4546 
     35 C          27.2824   -2.8587   -2.0649 C.2       1 UNK         0.5154 
     36 O          27.6857   -2.2846   -3.0774 O.2       1 UNK        -0.5181 
     37 C          26.2876    2.4870   -5.7336 C.2       5 UNK         0.5014 
     38 O          26.5353    3.5442   -6.3141 O.2       5 UNK        -0.5248 
     39 N          25.1259    1.8245   -5.8408 N.am      6 UNK        -0.4434 
     40 CA         23.9961    2.2179   -6.6897 C.3       6 UNK         0.0363 
     41 CB         22.8310    1.2451   -6.4483 C.3       6 UNK        -0.1936 
     42 C          24.3313    2.2904   -8.1935 C.2       6 UNK         0.5081 
     43 O          23.6616    3.0199   -8.9245 O.2       6 UNK        -0.5248 
     44 N          25.3692    1.5608   -8.6209 N.am      7 UNK        -0.4718 
     45 CA         25.9183    1.5604   -9.9766 C.3       7 UNK         0.0273 
     46 CB         26.1949    0.1019  -10.3794 C.3       7 UNK        -0.1935 
     47 C          27.1764    2.4477  -10.0999 C.2       7 UNK         0.5018 
     48 O          27.9198    2.2967  -11.0694 O.2       7 UNK        -0.5186 
     49 N          27.3882    3.3592   -9.1364 N.am      8 UNK        -0.4240 
     50 CA         28.4999    4.3130   -9.0260 C.3       8 UNK         0.0235 
     51 CB         28.5595    5.2666  -10.2400 C.3       8 UNK        -0.2000 
     52 C          29.8456    3.6323   -8.7104 C.2       8 UNK         0.4941 
     53 O          30.8627    3.9561   -9.3260 O.2       8 UNK        -0.5273 
     54 N          29.8146    2.7182   -7.7299 N.am      9 UNK        -0.4262 
     55 CA         30.9272    1.9252   -7.1918 C.3       9 UNK         0.0264 
     56 CB         32.0039    2.8245   -6.5472 C.3       9 UNK        -0.1955 
     57 C          31.4915    0.9371   -8.2267 C.2       9 UNK         0.5031 
     58 O          32.7086    0.8450   -8.4006 O.2       9 UNK        -0.5390 
     59 N          30.5917    0.1974   -8.8888 N.am      10 UNK        -0.4204 
     60 CA         30.8918   -0.7590   -9.9623 C.3       10 UNK         0.0237 
     61 CB         29.6240   -0.9765  -10.8067 C.3       10 UNK        -0.1985 
     62 C          31.4956   -2.0920   -9.4676 C.2       10 UNK         0.4970 
     63 O          31.0545   -3.1608   -9.8950 O.2       10 UNK        -0.4914 
     64 N          32.4910   -2.0150   -8.5803 N.am      11 UNK        -0.4285 
     65 CA         33.2768   -3.1599   -8.1026 C.3       11 UNK         0.1007 
     66 C          34.3351   -3.6083   -9.1463 C.2       11 UNK         0.5703 
     67 N          34.7038   -4.8822   -9.1448 N.am      11 UNK        -0.7361 
     68 O          34.8489   -2.8129   -9.9317 O.2       11 UNK        -0.4986 
     69 C69        33.9334   -2.8664   -6.7310 C.3       12 UNK        -0.0947 
     70 S70        32.6820   -2.6496   -5.4252 S.3       12 UNK        -0.2240 
     71 C71        33.3401   -1.2111   -4.5335 C.3       12 UNK         0.0194 
     72 H72        25.0227   -6.8407   -2.0157 H         1 UNK         0.0906 
     73 H73        26.0885   -6.2384   -0.7581 H         1 UNK         0.0906 
     74 H74        25.1567   -5.1088   -1.7605 H         1 UNK         0.0906 
     75 H75        28.6107   -5.1406   -3.3005 H         1 UNK         0.3140 
     76 H76        27.5728   -4.4613   -0.6402 H         1 UNK         0.1085 
     77 H77        29.9857   -3.3044   -2.1159 H         1 UNK         0.0836 
     78 H78        30.0665   -4.7883   -1.2107 H         1 UNK         0.0836 
     79 H79        32.1868   -3.1462   -0.0503 H         1 UNK         0.0731 
     80 H80        31.7986   -1.7704    0.9559 H         1 UNK         0.0731 
     81 H81        33.0555   -2.5539   -2.1870 H         1 UNK         0.1312 
     82 H82        31.6013    0.8788   -4.3003 H         1 UNK         0.1406 
     83 H83        30.1376    0.0056   -0.3674 H         1 UNK         0.1631 
     84 H84        29.9138    2.2663   -3.3784 H         1 UNK         0.0717 
     85 H85        30.0298    2.4761   -1.6436 H         1 UNK         0.0717 
     86 H86        27.3726    3.2085   -3.1980 H         1 UNK         0.0934 
     87 H87        26.1013    2.0211   -3.1121 H         1 UNK         0.0934 
     88 H88        28.3318    2.2544   -5.1774 H         1 UNK         0.0739 
     89 H89        27.3140   -0.2500   -4.3952 H         1 UNK         0.3093 
     90 H90        27.6380   -1.9161   -7.5670 H         1 UNK         0.0818 
     91 H91        29.9202   -1.9187   -6.6851 H         1 UNK         0.0819 
     92 H92        29.3560   -1.9964   -5.0276 H         1 UNK         0.0819 
     93 H93        29.0992   -3.3607   -6.1151 H         1 UNK         0.0819 
     94 H94        26.8586   -2.5599   -4.8149 H         1 UNK         0.3041 
     95 H95        23.3797   -2.1610   -5.4313 H         1 UNK         0.0784 
     96 H96        23.7293   -4.3939   -6.5069 H         1 UNK         0.0793 
     97 H97        24.8716   -4.8384   -5.2466 H         1 UNK         0.0793 
     98 H98        23.1729   -4.5689   -4.8516 H         1 UNK         0.0793 
     99 H99        24.7447   -3.3567   -3.2494 H         1 UNK         0.3024 
    100 H100       25.8637   -0.4543   -1.5898 H         1 UNK         0.1171 
    101 H101       24.4064   -1.2395    0.2400 H         1 UNK         0.0786 
    102 H102       23.4301   -0.5034   -1.0179 H         1 UNK         0.0786 
    103 H103       23.4914   -2.2549   -0.8760 H         1 UNK         0.0786 
    104 H104       25.9080   -3.0190   -0.5799 H         1 UNK         0.2977 
    105 H105       25.0000    0.9864   -5.2769 H         1 UNK         0.3127 
    106 H106       23.6832    3.2164   -6.3776 H         1 UNK         0.0770 
    107 H107       23.0943    0.2257   -6.7335 H         1 UNK         0.0814 
    108 H108       21.9546    1.5316   -7.0312 H         1 UNK         0.0814 
    109 H109       22.5335    1.2328   -5.3995 H         1 UNK         0.0814 
    110 H110       25.8790    1.0056   -7.9451 H         1 UNK         0.2983 
    111 H111       25.1844    1.9664  -10.6759 H         1 UNK         0.0947 
    112 H112       26.8992   -0.3707   -9.6961 H         1 UNK         0.0806 
    113 H113       26.6082    0.0341  -11.3864 H         1 UNK         0.0806 
    114 H114       25.2790   -0.4893  -10.3670 H         1 UNK         0.0806 
    115 H115       26.7415    3.3732   -8.3544 H         1 UNK         0.3000 
    116 H116       28.2717    4.9269   -8.1532 H         1 UNK         0.0850 
    117 H117       29.2862    6.0624  -10.0724 H         1 UNK         0.0810 
    118 H118       27.5953    5.7418  -10.4198 H         1 UNK         0.0810 
    119 H119       28.8555    4.7491  -11.1528 H         1 UNK         0.0810 
    120 H120       28.8999    2.4425   -7.3925 H         1 UNK         0.3040 
    121 H121       30.5046    1.3111   -6.3962 H         1 UNK         0.0766 
    122 H122       31.5734    3.4767   -5.7875 H         1 UNK         0.0812 
    123 H123       32.5046    3.4521   -7.2848 H         1 UNK         0.0812 
    124 H124       32.7746    2.2248   -6.0617 H         1 UNK         0.0812 
    125 H125       29.6148    0.3128   -8.6357 H         1 UNK         0.3205 
    126 H126       31.6412   -0.3038  -10.6132 H         1 UNK         0.0754 
    127 H127       29.8371   -1.5879  -11.6845 H         1 UNK         0.0769 
    128 H128       29.2192   -0.0318  -11.1678 H         1 UNK         0.0769 
    129 H129       28.8480   -1.4869  -10.2361 H         1 UNK         0.0769 
    130 H130       32.8255   -1.0911   -8.3257 H         1 UNK         0.2981 
    131 H131       32.5906   -3.9985   -7.9657 H         1 UNK         0.0541 
    132 H132       34.2984   -5.5419   -8.4990 H         1 UNK         0.3459 
    133 H133       35.3991   -5.1915   -9.8059 H         1 UNK         0.3459 
    134 H134       34.5807   -3.6904   -6.4252 H         1 UNK         0.0612 
    135 H135       34.5692   -1.9813   -6.7931 H         1 UNK         0.0612 
    136 H136       33.4269   -0.3689   -5.2221 H         1 UNK         0.0624 
    137 H137       34.3472   -1.4332   -4.1775 H         1 UNK         0.0624 
@<TRIPOS>BOND
     1    1    2 1    
     2    1   72 1    
     3    1   73 1    
     4    1   74 1    
     5    2    3 2    
     6    2    4 am   BACKBONE|DICT|INTERRES
     7    4    5 1    
     8    4   75 1    
     9    5    6 1    
    10    5   35 1    
    11    5   76 1    
    12    6    7 1    
    13    6   77 1    
    14    6   78 1    
    15    7    8 1    
    16    8    9 1    
    17    8   79 1    
    18    8   80 1    
    19    9   10 ar   
    20    9   14 ar   
    21   10   11 ar   
    22   10   81 1    
    23   11   12 ar   
    24   11   71 1    
    25   12   13 ar   
    26   12   82 1    
    27   13   14 ar   
    28   13   15 1    
    29   14   83 1    
    30   15   16 1    
    31   15   84 1    
    32   15   85 1    
    33   16   17 1    
    34   17   18 1    
    35   17   86 1    
    36   17   87 1    
    37   18   19 1    
    38   18   37 1    
    39   18   88 1    
    40   19   20 am   BACKBONE|DICT|INTERRES
    41   19   89 1    
    42   20   21 2    
    43   20   22 1    
    44   22   23 1    
    45   22   24 1    
    46   22   90 1    
    47   23   91 1    
    48   23   92 1    
    49   23   93 1    
    50   24   25 am   BACKBONE|DICT|INTERRES
    51   24   94 1    
    52   25   26 2    
    53   25   27 1    
    54   27   28 1    
    55   27   29 1    
    56   27   95 1    
    57   28   96 1    
    58   28   97 1    
    59   28   98 1    
    60   29   30 am   BACKBONE|DICT|INTERRES
    61   29   99 1    
    62   30   31 2    
    63   30   32 1    
    64   32   33 1    
    65   32   34 1    
    66   32  100 1    
    67   33  101 1    
    68   33  102 1    
    69   33  103 1    
    70   34   35 am   BACKBONE|DICT|INTERRES
    71   34  104 1    
    72   35   36 2    
    73   37   38 2    
    74   37   39 am   BACKBONE|DICT|INTERRES
    75   39   40 1    
    76   39  105 1    
    77   40   41 1    
    78   40   42 1    
    79   40  106 1    
    80   41  107 1    
    81   41  108 1    
    82   41  109 1    
    83   42   43 2    
    84   42   44 am   BACKBONE|DICT|INTERRES
    85   44   45 1    
    86   44  110 1    
    87   45   46 1    
    88   45   47 1    
    89   45  111 1    
    90   46  112 1    
    91   46  113 1    
    92   46  114 1    
    93   47   48 2    
    94   47   49 am   BACKBONE|DICT|INTERRES
    95   49   50 1    
    96   49  115 1    
    97   50   51 1    
    98   50   52 1    
    99   50  116 1    
   100   51  117 1    
   101   51  118 1    
   102   51  119 1    
   103   52   53 2    
   104   52   54 am   BACKBONE|DICT|INTERRES
   105   54   55 1    
   106   54  120 1    
   107   55   56 1    
   108   55   57 1    
   109   55  121 1    
   110   56  122 1    
   111   56  123 1    
   112   56  124 1    
   113   57   58 2    
   114   57   59 am   BACKBONE|DICT|INTERRES
   115   59   60 1    
   116   59  125 1    
   117   60   61 1    
   118   60   62 1    
   119   60  126 1    
   120   61  127 1    
   121   61  128 1    
   122   61  129 1    
   123   62   63 2    
   124   62   64 am   BACKBONE|DICT|INTERRES
   125   64   65 1    
   126   64  130 1    
   127   65   66 1    
   128   65   69 1    
   129   65  131 1    
   130   66   67 am   BACKBONE|DICT|INTERRES
   131   66   68 2    
   132   67  132 1    
   133   67  133 1    
   134   69   70 1    
   135   69  134 1    
   136   69  135 1    
   137   70   71 1    
   138   71  136 1    
   139   71  137 1    
@<TRIPOS>SUBSTRUCTURE
     1 UNK         1 GROUP             0       ****    0 ROOT    
