@<TRIPOS>MOLECULE
3R137
137   139    1
SMALL
USER_CHARGES


@<TRIPOS>ATOM
      1 CA         25.7068   -5.4581   -4.8369 C.3       0 UNK        -0.2020 
      2 C          25.8152   -4.6792   -3.5341 C.2       0 UNK         0.4855 
      3 O          25.0632   -3.7233   -3.3333 O.2       0 UNK        -0.5197 
      4 N          26.7439   -5.1010   -2.6605 N.am      1 UNK        -0.4892 
      5 CA         26.9601   -4.6303   -1.2820 C.3       1 UNK         0.0835 
      6 C6         28.0937   -5.4505   -0.5760 C.3       12 UNK        -0.0855 
      7 S7         29.3415   -4.5727    0.4448 S.3       12 UNK        -0.2931 
      8 C8         30.8861   -4.8438   -0.4871 C.3       12 UNK         0.0378 
      9 C9         30.9919   -3.9358   -1.7047 C.ar      12 UNK        -0.0802 
     10 C10        31.5174   -2.6454   -1.5735 C.ar      12 UNK        -0.0944 
     11 C11        31.6201   -1.8023   -2.6848 C.ar      12 UNK        -0.0787 
     12 C12        31.1957   -2.2626   -3.9317 C.ar      12 UNK        -0.0862 
     13 C13        30.6815   -3.5522   -4.0811 C.ar      12 UNK        -0.0733 
     14 C14        30.5834   -4.3872   -2.9641 C.ar      12 UNK        -0.0832 
     15 C15        30.2390   -4.0411   -5.4511 C.3       12 UNK         0.0240 
     16 S16        28.5279   -3.5451   -5.8117 S.3       12 UNK        -0.2522 
     17 C17        28.7330   -1.7760   -6.1915 C.3       12 UNK        -0.0967 
     18 CA         27.5637   -1.1971   -7.0166 C.3       5 UNK         0.0660 
     19 N          26.2672   -1.3818   -6.3548 N.am      5 UNK        -0.4015 
     20 C          25.0752   -1.2044   -6.9405 C.2       4 UNK         0.4946 
     21 O          24.9394   -0.8633   -8.1151 O.2       4 UNK        -0.5353 
     22 CA         23.8218   -1.4270   -6.0775 C.3       4 UNK         0.0277 
     23 CB         23.2442   -2.8339   -6.2908 C.3       4 UNK        -0.1981 
     24 N          24.0783   -1.2042   -4.6509 N.am      4 UNK        -0.4209 
     25 C          24.0294    0.0106   -4.0854 C.2       3 UNK         0.4942 
     26 O          23.7228    1.0379   -4.6921 O.2       3 UNK        -0.5208 
     27 CA         24.4089    0.1071   -2.5994 C.3       3 UNK         0.0250 
     28 CB         23.2921   -0.4660   -1.7118 C.3       3 UNK        -0.1990 
     29 N          25.6790   -0.5381   -2.2602 N.am      3 UNK        -0.4232 
     30 C          26.8691   -0.3078   -2.8288 C.2       2 UNK         0.4993 
     31 O          27.0357    0.4349   -3.7937 O.2       2 UNK        -0.5286 
     32 CA         28.0848   -1.0452   -2.2484 C.3       2 UNK         0.0209 
     33 CB         28.6000   -0.3578   -0.9682 C.3       2 UNK        -0.1931 
     34 N          27.8643   -2.4844   -2.0583 N.am      2 UNK        -0.4546 
     35 C          27.0707   -3.0948   -1.1667 C.2       1 UNK         0.5154 
     36 O          26.3920   -2.5005   -0.3258 O.2       1 UNK        -0.5181 
     37 C          27.8329    0.2819   -7.3572 C.2       5 UNK         0.5014 
     38 O          28.3801    0.5686   -8.4238 O.2       5 UNK        -0.5248 
     39 N          27.4174    1.1960   -6.4677 N.am      6 UNK        -0.4434 
     40 CA         27.5293    2.6486   -6.6190 C.3       6 UNK         0.0363 
     41 CB         27.0242    3.3349   -5.3405 C.3       6 UNK        -0.1936 
     42 C          26.7980    3.2104   -7.8494 C.2       6 UNK         0.5081 
     43 O          27.2500    4.2121   -8.4018 O.2       6 UNK        -0.5248 
     44 N          25.7263    2.5404   -8.2986 N.am      7 UNK        -0.4718 
     45 CA         24.9986    2.8761   -9.5283 C.3       7 UNK         0.0273 
     46 CB         23.6821    2.0853   -9.5785 C.3       7 UNK        -0.1935 
     47 C          25.8255    2.6380  -10.8069 C.2       7 UNK         0.5018 
     48 O          25.5910    3.3147  -11.8085 O.2       7 UNK        -0.5186 
     49 N          26.7891    1.7090  -10.7413 N.am      8 UNK        -0.4240 
     50 CA         27.7814    1.4437  -11.7853 C.3       8 UNK         0.0235 
     51 CB         27.9723   -0.0798  -11.8970 C.3       8 UNK        -0.2000 
     52 C          29.1285    2.1348  -11.4934 C.2       8 UNK         0.4941 
     53 O          30.0537    1.9914  -12.2935 O.2       8 UNK        -0.5273 
     54 N          29.2287    2.8378  -10.3524 N.am      9 UNK        -0.4262 
     55 CA         30.4303    3.4435   -9.7649 C.3       9 UNK         0.0264 
     56 CB         30.9238    4.6264  -10.6249 C.3       9 UNK        -0.1955 
     57 C          31.5414    2.4166   -9.4568 C.2       9 UNK         0.5031 
     58 O          32.7248    2.7519   -9.5465 O.2       9 UNK        -0.5390 
     59 N          31.1486    1.1838   -9.1104 N.am      10 UNK        -0.4204 
     60 CA         32.0546    0.0704   -8.8379 C.3       10 UNK         0.0237 
     61 CB         31.4182   -1.2227   -9.3755 C.3       10 UNK        -0.1985 
     62 C          32.3368   -0.0519   -7.3344 C.2       10 UNK         0.4970 
     63 O          31.4411    0.1947   -6.5256 O.2       10 UNK        -0.4914 
     64 N          33.5594   -0.4818   -7.0074 N.am      11 UNK        -0.4285 
     65 CA         34.0696   -0.8607   -5.6823 C.3       11 UNK         0.1007 
     66 C          35.4897   -1.4787   -5.8312 C.2       11 UNK         0.5703 
     67 N          36.0830   -1.9619   -4.7497 N.am      11 UNK        -0.7361 
     68 O          36.0579   -1.5358   -6.9222 O.2       11 UNK        -0.4986 
     69 C69        33.9970    0.2865   -4.6266 C.3       12 UNK        -0.0947 
     70 S70        33.9446   -0.3030   -2.8948 S.3       12 UNK        -0.2240 
     71 C71        32.1601   -0.3869   -2.5354 C.3       12 UNK         0.0194 
     72 H72        26.4214   -6.2795   -4.8837 H         1 UNK         0.0906 
     73 H73        24.7056   -5.8754   -4.9403 H         1 UNK         0.0906 
     74 H74        25.8934   -4.8055   -5.6880 H         1 UNK         0.0906 
     75 H75        27.3159   -5.8872   -2.9324 H         1 UNK         0.3140 
     76 H76        26.0323   -4.8719   -0.7582 H         1 UNK         0.1085 
     77 H77        27.6272   -6.1903    0.0765 H         1 UNK         0.0836 
     78 H78        28.6351   -6.0517   -1.3068 H         1 UNK         0.0836 
     79 H79        30.9677   -5.8924   -0.7774 H         1 UNK         0.0731 
     80 H80        31.7292   -4.6536    0.1788 H         1 UNK         0.0731 
     81 H81        31.8372   -2.2939   -0.6020 H         1 UNK         0.1312 
     82 H82        31.2588   -1.6093   -4.7881 H         1 UNK         0.1406 
     83 H83        30.1905   -5.3883   -3.0768 H         1 UNK         0.1631 
     84 H84        30.3041   -5.1291   -5.4984 H         1 UNK         0.0717 
     85 H85        30.9091   -3.6644   -6.2256 H         1 UNK         0.0717 
     86 H86        28.8581   -1.2234   -5.2610 H         1 UNK         0.0934 
     87 H87        29.6649   -1.6603   -6.7437 H         1 UNK         0.0934 
     88 H88        27.5239   -1.7383   -7.9647 H         1 UNK         0.0739 
     89 H89        26.2931   -1.6519   -5.3835 H         1 UNK         0.3093 
     90 H90        23.0679   -0.7148   -6.4209 H         1 UNK         0.0818 
     91 H91        23.0327   -3.0132   -7.3459 H         1 UNK         0.0819 
     92 H92        23.9312   -3.6090   -5.9602 H         1 UNK         0.0819 
     93 H93        22.3088   -2.9634   -5.7464 H         1 UNK         0.0819 
     94 H94        24.3410   -2.0099   -4.0874 H         1 UNK         0.3041 
     95 H95        24.5194    1.1672   -2.3624 H         1 UNK         0.0784 
     96 H96        22.3318   -0.0017   -1.9406 H         1 UNK         0.0793 
     97 H97        23.1781   -1.5421   -1.8512 H         1 UNK         0.0793 
     98 H98        23.4944   -0.2862   -0.6557 H         1 UNK         0.0793 
     99 H99        25.6686   -1.1977   -1.4863 H         1 UNK         0.3024 
    100 H100       28.8789   -0.9635   -2.9885 H         1 UNK         0.1171 
    101 H101       29.4633   -0.8800   -0.5570 H         1 UNK         0.0786 
    102 H102       28.9099    0.6664   -1.1791 H         1 UNK         0.0786 
    103 H103       27.8388   -0.3098   -0.1895 H         1 UNK         0.0786 
    104 H104       28.3548   -3.0812   -2.7110 H         1 UNK         0.2977 
    105 H105       27.0603    0.8710   -5.5698 H         1 UNK         0.3127 
    106 H106       28.5896    2.8814   -6.7367 H         1 UNK         0.0770 
    107 H107       25.9855    3.0762   -5.1289 H         1 UNK         0.0814 
    108 H108       27.0821    4.4208   -5.4271 H         1 UNK         0.0814 
    109 H109       27.6223    3.0483   -4.4753 H         1 UNK         0.0814 
    110 H110       25.4293    1.7113   -7.8016 H         1 UNK         0.2983 
    111 H111       24.7554    3.9405   -9.4922 H         1 UNK         0.0947 
    112 H112       23.0875    2.3761  -10.4456 H         1 UNK         0.0806 
    113 H113       23.0730    2.2672   -8.6928 H         1 UNK         0.0806 
    114 H114       23.8576    1.0118   -9.6522 H         1 UNK         0.0806 
    115 H115       26.9261    1.2127   -9.8678 H         1 UNK         0.3000 
    116 H116       27.4250    1.8167  -12.7478 H         1 UNK         0.0850 
    117 H117       28.6685   -0.3307  -12.6984 H         1 UNK         0.0810 
    118 H118       27.0306   -0.5821  -12.1188 H         1 UNK         0.0810 
    119 H119       28.3705   -0.5056  -10.9750 H         1 UNK         0.0810 
    120 H120       28.3946    2.9216   -9.7857 H         1 UNK         0.3040 
    121 H121       30.1218    3.8468   -8.7994 H         1 UNK         0.0766 
    122 H122       31.3086    4.2929  -11.5890 H         1 UNK         0.0812 
    123 H123       31.7277    5.1667  -10.1236 H         1 UNK         0.0812 
    124 H124       30.1226    5.3414  -10.8116 H         1 UNK         0.0812 
    125 H125       30.1568    1.0030   -8.9688 H         1 UNK         0.3205 
    126 H126       32.9996    0.2265   -9.3631 H         1 UNK         0.0754 
    127 H127       32.0441   -2.0903   -9.1623 H         1 UNK         0.0769 
    128 H128       31.2887   -1.1746  -10.4571 H         1 UNK         0.0769 
    129 H129       30.4382   -1.4079   -8.9358 H         1 UNK         0.0769 
    130 H130       34.2320   -0.6629   -7.7427 H         1 UNK         0.2981 
    131 H131       33.4383   -1.6853   -5.3571 H         1 UNK         0.0541 
    132 H132       37.0013   -2.3697   -4.8279 H         1 UNK         0.3459 
    133 H133       35.6313   -1.8937   -3.8496 H         1 UNK         0.3459 
    134 H134       33.1265    0.9216   -4.7828 H         1 UNK         0.0612 
    135 H135       34.8523    0.9553   -4.7364 H         1 UNK         0.0612 
    136 H136       31.9975   -0.0377   -1.5147 H         1 UNK         0.0624 
    137 H137       31.6050    0.2987   -3.1774 H         1 UNK         0.0624 
@<TRIPOS>BOND
     1    1    2 1    
     2    1   72 1    
     3    1   73 1    
     4    1   74 1    
     5    2    3 2    
     6    2    4 am   BACKBONE|DICT|INTERRES
     7    4    5 1    
     8    4   75 1    
     9    5    6 1    
    10    5   35 1    
    11    5   76 1    
    12    6    7 1    
    13    6   77 1    
    14    6   78 1    
    15    7    8 1    
    16    8    9 1    
    17    8   79 1    
    18    8   80 1    
    19    9   10 ar   
    20    9   14 ar   
    21   10   11 ar   
    22   10   81 1    
    23   11   12 ar   
    24   11   71 1    
    25   12   13 ar   
    26   12   82 1    
    27   13   14 ar   
    28   13   15 1    
    29   14   83 1    
    30   15   16 1    
    31   15   84 1    
    32   15   85 1    
    33   16   17 1    
    34   17   18 1    
    35   17   86 1    
    36   17   87 1    
    37   18   19 1    
    38   18   37 1    
    39   18   88 1    
    40   19   20 am   BACKBONE|DICT|INTERRES
    41   19   89 1    
    42   20   21 2    
    43   20   22 1    
    44   22   23 1    
    45   22   24 1    
    46   22   90 1    
    47   23   91 1    
    48   23   92 1    
    49   23   93 1    
    50   24   25 am   BACKBONE|DICT|INTERRES
    51   24   94 1    
    52   25   26 2    
    53   25   27 1    
    54   27   28 1    
    55   27   29 1    
    56   27   95 1    
    57   28   96 1    
    58   28   97 1    
    59   28   98 1    
    60   29   30 am   BACKBONE|DICT|INTERRES
    61   29   99 1    
    62   30   31 2    
    63   30   32 1    
    64   32   33 1    
    65   32   34 1    
    66   32  100 1    
    67   33  101 1    
    68   33  102 1    
    69   33  103 1    
    70   34   35 am   BACKBONE|DICT|INTERRES
    71   34  104 1    
    72   35   36 2    
    73   37   38 2    
    74   37   39 am   BACKBONE|DICT|INTERRES
    75   39   40 1    
    76   39  105 1    
    77   40   41 1    
    78   40   42 1    
    79   40  106 1    
    80   41  107 1    
    81   41  108 1    
    82   41  109 1    
    83   42   43 2    
    84   42   44 am   BACKBONE|DICT|INTERRES
    85   44   45 1    
    86   44  110 1    
    87   45   46 1    
    88   45   47 1    
    89   45  111 1    
    90   46  112 1    
    91   46  113 1    
    92   46  114 1    
    93   47   48 2    
    94   47   49 am   BACKBONE|DICT|INTERRES
    95   49   50 1    
    96   49  115 1    
    97   50   51 1    
    98   50   52 1    
    99   50  116 1    
   100   51  117 1    
   101   51  118 1    
   102   51  119 1    
   103   52   53 2    
   104   52   54 am   BACKBONE|DICT|INTERRES
   105   54   55 1    
   106   54  120 1    
   107   55   56 1    
   108   55   57 1    
   109   55  121 1    
   110   56  122 1    
   111   56  123 1    
   112   56  124 1    
   113   57   58 2    
   114   57   59 am   BACKBONE|DICT|INTERRES
   115   59   60 1    
   116   59  125 1    
   117   60   61 1    
   118   60   62 1    
   119   60  126 1    
   120   61  127 1    
   121   61  128 1    
   122   61  129 1    
   123   62   63 2    
   124   62   64 am   BACKBONE|DICT|INTERRES
   125   64   65 1    
   126   64  130 1    
   127   65   66 1    
   128   65   69 1    
   129   65  131 1    
   130   66   67 am   BACKBONE|DICT|INTERRES
   131   66   68 2    
   132   67  132 1    
   133   67  133 1    
   134   69   70 1    
   135   69  134 1    
   136   69  135 1    
   137   70   71 1    
   138   71  136 1    
   139   71  137 1    
@<TRIPOS>SUBSTRUCTURE
     1 UNK         1 GROUP             0       ****    0 ROOT    
