@<TRIPOS>MOLECULE
3R137
137   139    1
SMALL
USER_CHARGES


@<TRIPOS>ATOM
      1 CA         22.8661   -6.4741   -1.0037 C.3       0 UNK        -0.2020 
      2 C          24.2538   -5.8521   -0.9760 C.2       0 UNK         0.4855 
      3 O          24.7702   -5.5504    0.1008 O.2       0 UNK        -0.5197 
      4 N          24.8628   -5.6465   -2.1513 N.am      1 UNK        -0.4892 
      5 CA         26.1857   -5.0372   -2.3274 C.3       1 UNK         0.0835 
      6 C6         26.8255   -5.4870   -3.6692 C.3       12 UNK        -0.0855 
      7 S7         28.6229   -5.1688   -3.7401 S.3       12 UNK        -0.2931 
      8 C8         28.7206   -3.8450   -4.9904 C.3       12 UNK         0.0378 
      9 C9         29.8359   -2.8684   -4.6607 C.ar      12 UNK        -0.0802 
     10 C10        31.0506   -2.9173   -5.3479 C.ar      12 UNK        -0.0944 
     11 C11        32.0876   -2.0321   -5.0369 C.ar      12 UNK        -0.0787 
     12 C12        31.8864   -1.0825   -4.0231 C.ar      12 UNK        -0.0862 
     13 C13        30.6729   -1.0233   -3.3284 C.ar      12 UNK        -0.0733 
     14 C14        29.6508   -1.9171   -3.6554 C.ar      12 UNK        -0.0832 
     15 C15        30.4849   -0.0254   -2.1937 C.3       12 UNK         0.0240 
     16 S16        29.7765    1.5509   -2.7667 S.3       12 UNK        -0.2522 
     17 C17        28.0060    1.1443   -2.9616 C.3       12 UNK        -0.0967 
     18 CA         27.5746    1.0438   -4.4465 C.3       5 UNK         0.0660 
     19 N          26.4393    0.1259   -4.6217 N.am      5 UNK        -0.4015 
     20 C          25.9974   -0.3228   -5.8076 C.2       4 UNK         0.4946 
     21 O          26.5395   -0.0307   -6.8734 O.2       4 UNK        -0.5353 
     22 CA         24.7176   -1.1754   -5.8433 C.3       4 UNK         0.0277 
     23 CB         24.9914   -2.5699   -6.4283 C.3       4 UNK        -0.1981 
     24 N          24.0940   -1.3140   -4.5265 N.am      4 UNK        -0.4209 
     25 C          23.1345   -0.5103   -4.0462 C.2       3 UNK         0.4942 
     26 O          22.6515    0.4282   -4.6801 O.2       3 UNK        -0.5208 
     27 CA         22.6386   -0.7802   -2.6120 C.3       3 UNK         0.0250 
     28 CB         21.3954   -1.6839   -2.6372 C.3       3 UNK        -0.1990 
     29 N          23.6507   -1.3797   -1.7368 N.am      3 UNK        -0.4232 
     30 C          24.7912   -0.7819   -1.3648 C.2       2 UNK         0.4993 
     31 O          25.1064    0.3590   -1.7016 O.2       2 UNK        -0.5286 
     32 CA         25.7803   -1.6248   -0.5404 C.3       2 UNK         0.0209 
     33 CB         25.4549   -1.5246    0.9581 C.3       2 UNK        -0.1931 
     34 N          25.8485   -3.0395   -0.9322 N.am      2 UNK        -0.4546 
     35 C          26.0925   -3.5033   -2.1664 C.2       1 UNK         0.5154 
     36 O          26.1872   -2.7697   -3.1505 O.2       1 UNK        -0.5181 
     37 C          27.3221    2.4372   -5.0758 C.2       5 UNK         0.5014 
     38 O          28.2792    3.1512   -5.3726 O.2       5 UNK        -0.5248 
     39 N          26.0476    2.7869   -5.3147 N.am      6 UNK        -0.4434 
     40 CA         25.6343    3.9501   -6.1032 C.3       6 UNK         0.0363 
     41 CB         24.1183    4.1524   -5.9503 C.3       6 UNK        -0.1936 
     42 C          26.0168    3.8371   -7.5931 C.2       6 UNK         0.5081 
     43 O          26.3036    4.8599   -8.2156 O.2       6 UNK        -0.5248 
     44 N          26.0255    2.6096   -8.1351 N.am      7 UNK        -0.4718 
     45 CA         26.5248    2.3024   -9.4783 C.3       7 UNK         0.0273 
     46 CB         25.7602    1.0992  -10.0549 C.3       7 UNK        -0.1935 
     47 C          28.0362    2.0251   -9.4531 C.2       7 UNK         0.5018 
     48 O          28.7359    2.4117  -10.3896 O.2       7 UNK        -0.5186 
     49 N          28.5070    1.3658   -8.3832 N.am      8 UNK        -0.4240 
     50 CA         29.8968    1.0747   -8.0005 C.3       8 UNK         0.0235 
     51 CB         30.7142    2.3726   -7.8587 C.3       8 UNK        -0.2000 
     52 C          30.6285    0.0583   -8.8943 C.2       8 UNK         0.4941 
     53 O          31.4278   -0.7199   -8.3722 O.2       8 UNK        -0.5273 
     54 N          30.3551    0.0690  -10.2067 N.am      9 UNK        -0.4262 
     55 CA         30.9167   -0.8061  -11.2413 C.3       9 UNK         0.0264 
     56 CB         30.3440   -2.2355  -11.1027 C.3       9 UNK        -0.1955 
     57 C          32.4557   -0.7404  -11.2510 C.2       9 UNK         0.5031 
     58 O          33.0071    0.2916  -11.6377 O.2       9 UNK        -0.5390 
     59 N          33.1186   -1.8067  -10.7816 N.am      10 UNK        -0.4204 
     60 CA         34.5723   -1.9008  -10.6135 C.3       10 UNK         0.0237 
     61 CB         34.9352   -3.3233  -10.1568 C.3       10 UNK        -0.1985 
     62 C          35.1646   -0.8603   -9.6429 C.2       10 UNK         0.4970 
     63 O          36.3324   -0.5010   -9.7987 O.2       10 UNK        -0.4914 
     64 N          34.3601   -0.3881   -8.6818 N.am      11 UNK        -0.4285 
     65 CA         34.7088    0.7059   -7.7641 C.3       11 UNK         0.1007 
     66 C          34.4457    2.1223   -8.3567 C.2       11 UNK         0.5703 
     67 N          33.9226    2.2663   -9.5701 N.am      11 UNK        -0.7361 
     68 O          34.7399    3.1211   -7.7047 O.2       11 UNK        -0.4986 
     69 C69        34.0338    0.5191   -6.3782 C.3       12 UNK        -0.0947 
     70 S70        34.6899   -0.9278   -5.4837 S.3       12 UNK        -0.2240 
     71 C71        33.4030   -2.1823   -5.8069 C.3       12 UNK         0.0194 
     72 H72        22.8642   -7.4100   -0.4455 H         1 UNK         0.0906 
     73 H73        22.1441   -5.8010   -0.5423 H         1 UNK         0.0906 
     74 H74        22.5325   -6.6848   -2.0196 H         1 UNK         0.0906 
     75 H75        24.3803   -5.8934   -3.0043 H         1 UNK         0.3140 
     76 H76        26.8314   -5.4009   -1.5243 H         1 UNK         0.1085 
     77 H77        26.3157   -5.0448   -4.5259 H         1 UNK         0.0836 
     78 H78        26.7013   -6.5650   -3.7851 H         1 UNK         0.0836 
     79 H79        27.7865   -3.2903   -5.0472 H         1 UNK         0.0731 
     80 H80        28.8688   -4.2909   -5.9750 H         1 UNK         0.0731 
     81 H81        31.1955   -3.6576   -6.1231 H         1 UNK         0.1312 
     82 H82        32.6726   -0.3927   -3.7529 H         1 UNK         0.1406 
     83 H83        28.7130   -1.8898   -3.1183 H         1 UNK         0.1631 
     84 H84        31.4488    0.1810   -1.7260 H         1 UNK         0.0717 
     85 H85        29.8594   -0.4516   -1.4078 H         1 UNK         0.0717 
     86 H86        27.8160    0.2019   -2.4490 H         1 UNK         0.0934 
     87 H87        27.4088    1.8848   -2.4253 H         1 UNK         0.0934 
     88 H88        28.4012    0.5981   -5.0042 H         1 UNK         0.0739 
     89 H89        25.9384   -0.1379   -3.7831 H         1 UNK         0.3093 
     90 H90        24.0275   -0.6686   -6.5213 H         1 UNK         0.0818 
     91 H91        24.0647   -3.1266   -6.5674 H         1 UNK         0.0819 
     92 H92        25.4758   -2.5011   -7.4035 H         1 UNK         0.0819 
     93 H93        25.6381   -3.1594   -5.7826 H         1 UNK         0.0819 
     94 H94        24.5040   -2.0158   -3.9181 H         1 UNK         0.3041 
     95 H95        22.3547    0.1819   -2.1800 H         1 UNK         0.0784 
     96 H96        20.6116   -1.2517   -3.2611 H         1 UNK         0.0793 
     97 H97        21.6219   -2.6730   -3.0375 H         1 UNK         0.0793 
     98 H98        20.9769   -1.8123   -1.6387 H         1 UNK         0.0793 
     99 H99        23.4831   -2.3238   -1.4206 H         1 UNK         0.3024 
    100 H100       26.7730   -1.1997   -0.7008 H         1 UNK         0.1171 
    101 H101       26.2157   -2.0183    1.5631 H         1 UNK         0.0786 
    102 H102       25.4130   -0.4832    1.2809 H         1 UNK         0.0786 
    103 H103       24.4919   -1.9792    1.1941 H         1 UNK         0.0786 
    104 H104       25.6915   -3.7287   -0.2036 H         1 UNK         0.2977 
    105 H105       25.3144    2.1622   -5.0116 H         1 UNK         0.3127 
    106 H106       26.1407    4.8290   -5.6982 H         1 UNK         0.0770 
    107 H107       23.8426    4.3175   -4.9086 H         1 UNK         0.0814 
    108 H108       23.5557    3.2915   -6.3144 H         1 UNK         0.0814 
    109 H109       23.7827    5.0237   -6.5146 H         1 UNK         0.0814 
    110 H110       25.8242    1.8129   -7.5434 H         1 UNK         0.2983 
    111 H111       26.3530    3.1577  -10.1360 H         1 UNK         0.0947 
    112 H112       24.6899    1.2993  -10.1074 H         1 UNK         0.0806 
    113 H113       25.9032    0.1978   -9.4582 H         1 UNK         0.0806 
    114 H114       26.0974    0.8747  -11.0677 H         1 UNK         0.0806 
    115 H115       27.8089    0.9827   -7.7487 H         1 UNK         0.3000 
    116 H116       29.8327    0.6200   -7.0106 H         1 UNK         0.0850 
    117 H117       30.9209    2.8329   -8.8255 H         1 UNK         0.0810 
    118 H118       31.6721    2.1783   -7.3799 H         1 UNK         0.0810 
    119 H119       30.1944    3.1065   -7.2435 H         1 UNK         0.0810 
    120 H120       29.7469    0.8163  -10.5322 H         1 UNK         0.3040 
    121 H121       30.5866   -0.4077  -12.2018 H         1 UNK         0.0766 
    122 H122       30.7393   -2.8969  -11.8750 H         1 UNK         0.0812 
    123 H123       29.2599   -2.2293  -11.2160 H         1 UNK         0.0812 
    124 H124       30.5646   -2.6823  -10.1325 H         1 UNK         0.0812 
    125 H125       32.5728   -2.5892  -10.4511 H         1 UNK         0.3205 
    126 H126       35.0265   -1.7267  -11.5912 H         1 UNK         0.0754 
    127 H127       34.6027   -4.0701  -10.8781 H         1 UNK         0.0769 
    128 H128       36.0153   -3.4361  -10.0518 H         1 UNK         0.0769 
    129 H129       34.4876   -3.5634   -9.1912 H         1 UNK         0.0769 
    130 H130       33.3953   -0.7031   -8.6376 H         1 UNK         0.2981 
    131 H131       35.7868    0.6757   -7.5954 H         1 UNK         0.0541 
    132 H132       33.7768    3.1964   -9.9277 H         1 UNK         0.3459 
    133 H133       33.6897    1.4673  -10.1490 H         1 UNK         0.3459 
    134 H134       34.2099    1.3867   -5.7402 H         1 UNK         0.0612 
    135 H135       32.9516    0.4311   -6.4763 H         1 UNK         0.0612 
    136 H136       33.8270   -3.1567   -5.5610 H         1 UNK         0.0624 
    137 H137       33.1941   -2.2042   -6.8768 H         1 UNK         0.0624 
@<TRIPOS>BOND
     1    1    2 1    
     2    1   72 1    
     3    1   73 1    
     4    1   74 1    
     5    2    3 2    
     6    2    4 am   BACKBONE|DICT|INTERRES
     7    4    5 1    
     8    4   75 1    
     9    5    6 1    
    10    5   35 1    
    11    5   76 1    
    12    6    7 1    
    13    6   77 1    
    14    6   78 1    
    15    7    8 1    
    16    8    9 1    
    17    8   79 1    
    18    8   80 1    
    19    9   10 ar   
    20    9   14 ar   
    21   10   11 ar   
    22   10   81 1    
    23   11   12 ar   
    24   11   71 1    
    25   12   13 ar   
    26   12   82 1    
    27   13   14 ar   
    28   13   15 1    
    29   14   83 1    
    30   15   16 1    
    31   15   84 1    
    32   15   85 1    
    33   16   17 1    
    34   17   18 1    
    35   17   86 1    
    36   17   87 1    
    37   18   19 1    
    38   18   37 1    
    39   18   88 1    
    40   19   20 am   BACKBONE|DICT|INTERRES
    41   19   89 1    
    42   20   21 2    
    43   20   22 1    
    44   22   23 1    
    45   22   24 1    
    46   22   90 1    
    47   23   91 1    
    48   23   92 1    
    49   23   93 1    
    50   24   25 am   BACKBONE|DICT|INTERRES
    51   24   94 1    
    52   25   26 2    
    53   25   27 1    
    54   27   28 1    
    55   27   29 1    
    56   27   95 1    
    57   28   96 1    
    58   28   97 1    
    59   28   98 1    
    60   29   30 am   BACKBONE|DICT|INTERRES
    61   29   99 1    
    62   30   31 2    
    63   30   32 1    
    64   32   33 1    
    65   32   34 1    
    66   32  100 1    
    67   33  101 1    
    68   33  102 1    
    69   33  103 1    
    70   34   35 am   BACKBONE|DICT|INTERRES
    71   34  104 1    
    72   35   36 2    
    73   37   38 2    
    74   37   39 am   BACKBONE|DICT|INTERRES
    75   39   40 1    
    76   39  105 1    
    77   40   41 1    
    78   40   42 1    
    79   40  106 1    
    80   41  107 1    
    81   41  108 1    
    82   41  109 1    
    83   42   43 2    
    84   42   44 am   BACKBONE|DICT|INTERRES
    85   44   45 1    
    86   44  110 1    
    87   45   46 1    
    88   45   47 1    
    89   45  111 1    
    90   46  112 1    
    91   46  113 1    
    92   46  114 1    
    93   47   48 2    
    94   47   49 am   BACKBONE|DICT|INTERRES
    95   49   50 1    
    96   49  115 1    
    97   50   51 1    
    98   50   52 1    
    99   50  116 1    
   100   51  117 1    
   101   51  118 1    
   102   51  119 1    
   103   52   53 2    
   104   52   54 am   BACKBONE|DICT|INTERRES
   105   54   55 1    
   106   54  120 1    
   107   55   56 1    
   108   55   57 1    
   109   55  121 1    
   110   56  122 1    
   111   56  123 1    
   112   56  124 1    
   113   57   58 2    
   114   57   59 am   BACKBONE|DICT|INTERRES
   115   59   60 1    
   116   59  125 1    
   117   60   61 1    
   118   60   62 1    
   119   60  126 1    
   120   61  127 1    
   121   61  128 1    
   122   61  129 1    
   123   62   63 2    
   124   62   64 am   BACKBONE|DICT|INTERRES
   125   64   65 1    
   126   64  130 1    
   127   65   66 1    
   128   65   69 1    
   129   65  131 1    
   130   66   67 am   BACKBONE|DICT|INTERRES
   131   66   68 2    
   132   67  132 1    
   133   67  133 1    
   134   69   70 1    
   135   69  134 1    
   136   69  135 1    
   137   70   71 1    
   138   71  136 1    
   139   71  137 1    
@<TRIPOS>SUBSTRUCTURE
     1 UNK         1 GROUP             0       ****    0 ROOT    
