@<TRIPOS>MOLECULE
3R137
137   139    1
SMALL
USER_CHARGES


@<TRIPOS>ATOM
      1 CA         24.9012   -1.0656   -0.1023 C.3       0 UNK        -0.2020 
      2 C          25.7788   -1.7577   -1.1325 C.2       0 UNK         0.4855 
      3 O          25.8635   -1.2951   -2.2708 O.2       0 UNK        -0.5197 
      4 N          26.4344   -2.8624   -0.7484 N.am      1 UNK        -0.4892 
      5 CA         27.3191   -3.6524   -1.6164 C.3       1 UNK         0.0835 
      6 C6         28.1646   -4.6558   -0.7952 C.3       12 UNK        -0.0855 
      7 S7         29.6165   -5.2946   -1.7023 S.3       12 UNK        -0.2931 
      8 C8         30.9912   -4.3403   -0.9837 C.3       12 UNK         0.0378 
      9 C9         31.1546   -2.9767   -1.6420 C.ar      12 UNK        -0.0802 
     10 C10        31.9252   -2.8470   -2.8014 C.ar      12 UNK        -0.0944 
     11 C11        32.1378   -1.5913   -3.3794 C.ar      12 UNK        -0.0787 
     12 C12        31.5513   -0.4605   -2.8009 C.ar      12 UNK        -0.0862 
     13 C13        30.7692   -0.5764   -1.6485 C.ar      12 UNK        -0.0733 
     14 C14        30.5824   -1.8376   -1.0693 C.ar      12 UNK        -0.0832 
     15 C15        30.1650    0.6635   -1.0021 C.3       12 UNK         0.0240 
     16 S16        28.3664    0.4948   -0.8037 S.3       12 UNK        -0.2522 
     17 C17        27.6686    1.8073   -1.8570 C.3       12 UNK        -0.0967 
     18 CA         27.9896    1.7198   -3.3725 C.3       5 UNK         0.0660 
     19 N          27.6995    0.4093   -3.9724 N.am      5 UNK        -0.4015 
     20 C          28.0720    0.0738   -5.2203 C.2       4 UNK         0.4946 
     21 O          28.7033    0.8205   -5.9688 O.2       4 UNK        -0.5353 
     22 CA         27.6231   -1.2900   -5.7680 C.3       4 UNK         0.0277 
     23 CB         28.6917   -2.3543   -5.4805 C.3       4 UNK        -0.1981 
     24 N          26.3024   -1.7219   -5.2946 N.am      4 UNK        -0.4209 
     25 C          25.1660   -1.0435   -5.5277 C.2       3 UNK         0.4942 
     26 O          25.1399    0.0111   -6.1636 O.2       3 UNK        -0.5208 
     27 CA         23.8462   -1.5528   -4.9182 C.3       3 UNK         0.0250 
     28 CB         22.6984   -1.5804   -5.9496 C.3       3 UNK        -0.1990 
     29 N          23.9581   -2.8096   -4.1695 N.am      3 UNK        -0.4232 
     30 C          24.0714   -4.0653   -4.6275 C.2       2 UNK         0.4993 
     31 O          24.0424   -4.3796   -5.8180 O.2       2 UNK        -0.5286 
     32 CA         24.2966   -5.1389   -3.5391 C.3       2 UNK         0.0209 
     33 CB         24.6757   -6.5204   -4.1161 C.3       2 UNK        -0.1931 
     34 N          25.2766   -4.6989   -2.5310 N.am      2 UNK        -0.4546 
     35 C          26.5472   -4.3314   -2.7707 C.2       1 UNK         0.5154 
     36 O          27.0797   -4.4332   -3.8734 O.2       1 UNK        -0.5181 
     37 C          27.2639    2.8695   -4.1060 C.2       5 UNK         0.5014 
     38 O          27.8058    3.9731   -4.1822 O.2       5 UNK        -0.5248 
     39 N          26.0524    2.5969   -4.6133 N.am      6 UNK        -0.4434 
     40 CA         25.2391    3.5480   -5.3692 C.3       6 UNK         0.0363 
     41 CB         23.7538    3.1693   -5.2434 C.3       6 UNK        -0.1936 
     42 C          25.6631    3.6077   -6.8436 C.2       6 UNK         0.5081 
     43 O          25.7384    4.7009   -7.4051 O.2       6 UNK        -0.5248 
     44 N          25.9228    2.4378   -7.4449 N.am      7 UNK        -0.4718 
     45 CA         26.3242    2.2951   -8.8453 C.3       7 UNK         0.0273 
     46 CB         26.2319    0.8175   -9.2581 C.3       7 UNK        -0.1935 
     47 C          27.7280    2.8465   -9.1359 C.2       7 UNK         0.5018 
     48 O          27.9257    3.4403  -10.1970 O.2       7 UNK        -0.5186 
     49 N          28.6741    2.6231   -8.2097 N.am      8 UNK        -0.4240 
     50 CA         30.0930    3.0092   -8.2267 C.3       8 UNK         0.0235 
     51 CB         30.2672    4.5394   -8.2737 C.3       8 UNK        -0.2000 
     52 C          30.9254    2.3128   -9.3179 C.2       8 UNK         0.4941 
     53 O          31.9511    1.7120   -9.0020 O.2       8 UNK        -0.5273 
     54 N          30.4613    2.3612  -10.5738 N.am      9 UNK        -0.4262 
     55 CA         31.0696    1.7100  -11.7401 C.3       9 UNK         0.0264 
     56 CB         30.3080    2.1272  -13.0078 C.3       9 UNK        -0.1955 
     57 C          31.1277    0.1759  -11.6257 C.2       9 UNK         0.5031 
     58 O          32.0337   -0.4406  -12.1883 O.2       9 UNK        -0.5390 
     59 N          30.1939   -0.4045  -10.8575 N.am      10 UNK        -0.4204 
     60 CA         30.1385   -1.8232  -10.4938 C.3       10 UNK         0.0237 
     61 CB         28.8652   -2.0747   -9.6704 C.3       10 UNK        -0.1985 
     62 C          31.3756   -2.3218   -9.7217 C.2       10 UNK         0.4970 
     63 O          31.6669   -3.5172   -9.7735 O.2       10 UNK        -0.4914 
     64 N          32.0817   -1.4113   -9.0382 N.am      11 UNK        -0.4285 
     65 CA         33.3517   -1.6823   -8.3516 C.3       11 UNK         0.1007 
     66 C          34.5778   -1.7822   -9.3075 C.2       11 UNK         0.5703 
     67 N          34.4586   -1.4782  -10.5963 N.am      11 UNK        -0.7361 
     68 O          35.6630   -2.1579   -8.8706 O.2       11 UNK        -0.4986 
     69 C69        33.6108   -0.6626   -7.2122 C.3       12 UNK        -0.0947 
     70 S70        32.2577   -0.6184   -5.9881 S.3       12 UNK        -0.2240 
     71 C71        33.0575   -1.4531   -4.5852 C.3       12 UNK         0.0194 
     72 H72        23.8731   -1.0132   -0.4590 H         1 UNK         0.0906 
     73 H73        24.9046   -1.5868    0.8546 H         1 UNK         0.0906 
     74 H74        25.2562   -0.0488    0.0639 H         1 UNK         0.0906 
     75 H75        26.3351   -3.1912    0.2021 H         1 UNK         0.3140 
     76 H76        28.0073   -2.9415   -2.0803 H         1 UNK         0.1085 
     77 H77        27.5550   -5.5022   -0.4730 H         1 UNK         0.0836 
     78 H78        28.5143   -4.1823    0.1233 H         1 UNK         0.0836 
     79 H79        31.9107   -4.9134   -1.1129 H         1 UNK         0.0731 
     80 H80        30.8579   -4.2373    0.0942 H         1 UNK         0.0731 
     81 H81        32.3828   -3.7250   -3.2369 H         1 UNK         0.1312 
     82 H82        31.7205    0.5119   -3.2430 H         1 UNK         0.1406 
     83 H83        29.9936   -1.9285   -0.1665 H         1 UNK         0.1631 
     84 H84        30.4010    1.5642   -1.5698 H         1 UNK         0.0717 
     85 H85        30.6132    0.7985   -0.0170 H         1 UNK         0.0717 
     86 H86        26.5877    1.7848   -1.7021 H         1 UNK         0.0934 
     87 H87        28.0057    2.7655   -1.4560 H         1 UNK         0.0934 
     88 H88        29.0599    1.8929   -3.5004 H         1 UNK         0.0739 
     89 H89        27.1642   -0.2461   -3.4090 H         1 UNK         0.3093 
     90 H90        27.5433   -1.1892   -6.8504 H         1 UNK         0.0818 
     91 H91        28.4203   -3.3192   -5.9083 H         1 UNK         0.0819 
     92 H92        28.8558   -2.4874   -4.4106 H         1 UNK         0.0819 
     93 H93        29.6487   -2.0695   -5.9182 H         1 UNK         0.0819 
     94 H94        26.2674   -2.5773   -4.7540 H         1 UNK         0.3041 
     95 H95        23.5786   -0.8064   -4.1688 H         1 UNK         0.0784 
     96 H96        22.5142   -0.5837   -6.3526 H         1 UNK         0.0793 
     97 H97        22.9261   -2.2291   -6.7956 H         1 UNK         0.0793 
     98 H98        21.7668   -1.9241   -5.5004 H         1 UNK         0.0793 
     99 H99        24.0609   -2.6798   -3.1723 H         1 UNK         0.3024 
    100 H100       23.3412   -5.2512   -3.0232 H         1 UNK         0.1171 
    101 H101       23.8898   -6.8974   -4.7716 H         1 UNK         0.0786 
    102 H102       25.5937   -6.4798   -4.7032 H         1 UNK         0.0786 
    103 H103       24.8167   -7.2557   -3.3241 H         1 UNK         0.0786 
    104 H104       24.9224   -4.5698   -1.5929 H         1 UNK         0.2977 
    105 H105       25.7052    1.6493   -4.5575 H         1 UNK         0.3127 
    106 H106       25.3686    4.5448   -4.9414 H         1 UNK         0.0770 
    107 H107       23.5485    2.1790   -5.6518 H         1 UNK         0.0814 
    108 H108       23.1255    3.8794   -5.7828 H         1 UNK         0.0814 
    109 H109       23.4298    3.1765   -4.2027 H         1 UNK         0.0814 
    110 H110       25.7711    1.5763   -6.9235 H         1 UNK         0.2983 
    111 H111       25.6171    2.8627   -9.4544 H         1 UNK         0.0947 
    112 H112       26.4938    0.6859  -10.3089 H         1 UNK         0.0806 
    113 H113       25.2208    0.4319   -9.1251 H         1 UNK         0.0806 
    114 H114       26.9046    0.1935   -8.6706 H         1 UNK         0.0806 
    115 H115       28.4152    2.0666   -7.3969 H         1 UNK         0.3000 
    116 H116       30.4928    2.6668   -7.2702 H         1 UNK         0.0850 
    117 H117       31.3198    4.8126   -8.1895 H         1 UNK         0.0810 
    118 H118       29.7402    5.0205   -7.4495 H         1 UNK         0.0810 
    119 H119       29.8951    4.9685   -9.2043 H         1 UNK         0.0810 
    120 H120       29.5862    2.8622  -10.7194 H         1 UNK         0.3040 
    121 H121       32.0975    2.0696  -11.8200 H         1 UNK         0.0766 
    122 H122       30.7491    1.6728  -13.8962 H         1 UNK         0.0812 
    123 H123       30.3368    3.2076  -13.1500 H         1 UNK         0.0812 
    124 H124       29.2614    1.8218  -12.9694 H         1 UNK         0.0812 
    125 H125       29.4978    0.1957  -10.4422 H         1 UNK         0.3205 
    126 H126       30.0756   -2.3996  -11.4190 H         1 UNK         0.0754 
    127 H127       28.8747   -1.5022   -8.7429 H         1 UNK         0.0769 
    128 H128       28.7735   -3.1281   -9.4018 H         1 UNK         0.0769 
    129 H129       27.9678   -1.8048  -10.2276 H         1 UNK         0.0769 
    130 H130       31.7980   -0.4391   -9.0522 H         1 UNK         0.2981 
    131 H131       33.2673   -2.6652   -7.8840 H         1 UNK         0.0541 
    132 H132       33.5751   -1.1712  -10.9858 H         1 UNK         0.3459 
    133 H133       35.2661   -1.5571  -11.1935 H         1 UNK         0.3459 
    134 H134       33.7329    0.3417   -7.6197 H         1 UNK         0.0612 
    135 H135       34.5471   -0.8901   -6.6995 H         1 UNK         0.0612 
    136 H136       33.9413   -0.8870   -4.2883 H         1 UNK         0.0624 
    137 H137       33.4087   -2.4316   -4.9171 H         1 UNK         0.0624 
@<TRIPOS>BOND
     1    1    2 1    
     2    1   72 1    
     3    1   73 1    
     4    1   74 1    
     5    2    3 2    
     6    2    4 am   BACKBONE|DICT|INTERRES
     7    4    5 1    
     8    4   75 1    
     9    5    6 1    
    10    5   35 1    
    11    5   76 1    
    12    6    7 1    
    13    6   77 1    
    14    6   78 1    
    15    7    8 1    
    16    8    9 1    
    17    8   79 1    
    18    8   80 1    
    19    9   10 ar   
    20    9   14 ar   
    21   10   11 ar   
    22   10   81 1    
    23   11   12 ar   
    24   11   71 1    
    25   12   13 ar   
    26   12   82 1    
    27   13   14 ar   
    28   13   15 1    
    29   14   83 1    
    30   15   16 1    
    31   15   84 1    
    32   15   85 1    
    33   16   17 1    
    34   17   18 1    
    35   17   86 1    
    36   17   87 1    
    37   18   19 1    
    38   18   37 1    
    39   18   88 1    
    40   19   20 am   BACKBONE|DICT|INTERRES
    41   19   89 1    
    42   20   21 2    
    43   20   22 1    
    44   22   23 1    
    45   22   24 1    
    46   22   90 1    
    47   23   91 1    
    48   23   92 1    
    49   23   93 1    
    50   24   25 am   BACKBONE|DICT|INTERRES
    51   24   94 1    
    52   25   26 2    
    53   25   27 1    
    54   27   28 1    
    55   27   29 1    
    56   27   95 1    
    57   28   96 1    
    58   28   97 1    
    59   28   98 1    
    60   29   30 am   BACKBONE|DICT|INTERRES
    61   29   99 1    
    62   30   31 2    
    63   30   32 1    
    64   32   33 1    
    65   32   34 1    
    66   32  100 1    
    67   33  101 1    
    68   33  102 1    
    69   33  103 1    
    70   34   35 am   BACKBONE|DICT|INTERRES
    71   34  104 1    
    72   35   36 2    
    73   37   38 2    
    74   37   39 am   BACKBONE|DICT|INTERRES
    75   39   40 1    
    76   39  105 1    
    77   40   41 1    
    78   40   42 1    
    79   40  106 1    
    80   41  107 1    
    81   41  108 1    
    82   41  109 1    
    83   42   43 2    
    84   42   44 am   BACKBONE|DICT|INTERRES
    85   44   45 1    
    86   44  110 1    
    87   45   46 1    
    88   45   47 1    
    89   45  111 1    
    90   46  112 1    
    91   46  113 1    
    92   46  114 1    
    93   47   48 2    
    94   47   49 am   BACKBONE|DICT|INTERRES
    95   49   50 1    
    96   49  115 1    
    97   50   51 1    
    98   50   52 1    
    99   50  116 1    
   100   51  117 1    
   101   51  118 1    
   102   51  119 1    
   103   52   53 2    
   104   52   54 am   BACKBONE|DICT|INTERRES
   105   54   55 1    
   106   54  120 1    
   107   55   56 1    
   108   55   57 1    
   109   55  121 1    
   110   56  122 1    
   111   56  123 1    
   112   56  124 1    
   113   57   58 2    
   114   57   59 am   BACKBONE|DICT|INTERRES
   115   59   60 1    
   116   59  125 1    
   117   60   61 1    
   118   60   62 1    
   119   60  126 1    
   120   61  127 1    
   121   61  128 1    
   122   61  129 1    
   123   62   63 2    
   124   62   64 am   BACKBONE|DICT|INTERRES
   125   64   65 1    
   126   64  130 1    
   127   65   66 1    
   128   65   69 1    
   129   65  131 1    
   130   66   67 am   BACKBONE|DICT|INTERRES
   131   66   68 2    
   132   67  132 1    
   133   67  133 1    
   134   69   70 1    
   135   69  134 1    
   136   69  135 1    
   137   70   71 1    
   138   71  136 1    
   139   71  137 1    
@<TRIPOS>SUBSTRUCTURE
     1 UNK         1 GROUP             0       ****    0 ROOT    
