@<TRIPOS>MOLECULE
3R137
137   139    1
SMALL
USER_CHARGES


@<TRIPOS>ATOM
      1 CA         24.4892   -2.0383   -7.3405 C.3       0 UNK        -0.2020 
      2 C          24.9264   -2.3344   -5.9151 C.2       0 UNK         0.4855 
      3 O          25.7589   -1.6037   -5.3759 O.2       0 UNK        -0.5197 
      4 N          24.3673   -3.4069   -5.3332 N.am      1 UNK        -0.4892 
      5 CA         24.4922   -3.8782   -3.9446 C.3       1 UNK         0.0835 
      6 C6         25.9503   -4.1133   -3.4660 C.3       12 UNK        -0.0855 
      7 S7         26.6815   -5.6305   -4.1688 S.3       12 UNK        -0.2931 
      8 C8         27.7036   -4.9873   -5.5387 C.3       12 UNK         0.0378 
      9 C9         28.9953   -4.2606   -5.1534 C.ar      12 UNK        -0.0802 
     10 C10        29.8912   -3.9386   -6.1774 C.ar      12 UNK        -0.0944 
     11 C11        31.0656   -3.2305   -5.9121 C.ar      12 UNK        -0.0787 
     12 C12        31.3464   -2.8333   -4.6026 C.ar      12 UNK        -0.0862 
     13 C13        30.4669   -3.1497   -3.5636 C.ar      12 UNK        -0.0733 
     14 C14        29.3094   -3.8829   -3.8402 C.ar      12 UNK        -0.0832 
     15 C15        30.7541   -2.6792   -2.1435 C.3       12 UNK         0.0240 
     16 S16        29.5218   -1.4691   -1.5527 S.3       12 UNK        -0.2522 
     17 C17        29.6149   -0.1754   -2.8387 C.3       12 UNK        -0.0967 
     18 CA         28.3822   -0.2271   -3.7832 C.3       5 UNK         0.0660 
     19 N          27.1144    0.0803   -3.1078 N.am      5 UNK        -0.4015 
     20 C          26.7520    1.2573   -2.5710 C.2       4 UNK         0.4946 
     21 O          27.4615    2.2635   -2.5389 O.2       4 UNK        -0.5353 
     22 CA         25.3519    1.3200   -1.9460 C.3       4 UNK         0.0277 
     23 CB         24.2797    1.5049   -3.0336 C.3       4 UNK        -0.1981 
     24 N          25.0688    0.1234   -1.1509 N.am      4 UNK        -0.4209 
     25 C          25.5468   -0.0844    0.0873 C.2       3 UNK         0.4942 
     26 O          26.2218    0.7495    0.6936 O.2       3 UNK        -0.5208 
     27 CA         25.2597   -1.4413    0.7702 C.3       3 UNK         0.0250 
     28 CB         24.9476   -1.2866    2.2745 C.3       3 UNK        -0.1990 
     29 N          24.2410   -2.2603    0.1013 N.am      3 UNK        -0.4232 
     30 C          22.9396   -1.9809   -0.0728 C.2       2 UNK         0.4993 
     31 O          22.3735   -1.0027    0.4173 O.2       2 UNK        -0.5286 
     32 CA         22.1560   -2.9446   -0.9916 C.3       2 UNK         0.0209 
     33 CB         20.9236   -2.2691   -1.6317 C.3       2 UNK        -0.1931 
     34 N          22.9812   -3.5839   -2.0342 N.am      2 UNK        -0.4546 
     35 C          23.7294   -2.9655   -2.9635 C.2       1 UNK         0.5154 
     36 O          23.8682   -1.7431   -3.0137 O.2       1 UNK        -0.5181 
     37 C          28.5379    0.6528   -5.0376 C.2       5 UNK         0.5014 
     38 O          29.4407    1.4884   -5.1081 O.2       5 UNK        -0.5248 
     39 N          27.6071    0.4773   -5.9823 N.am      6 UNK        -0.4434 
     40 CA         27.4658    1.3095   -7.1758 C.3       6 UNK         0.0363 
     41 CB         26.4406    2.4254   -6.8936 C.3       6 UNK        -0.1936 
     42 C          27.1094    0.4659   -8.4088 C.2       6 UNK         0.5081 
     43 O          26.3286    0.9135   -9.2498 O.2       6 UNK        -0.5248 
     44 N          27.6822   -0.7427   -8.5098 N.am      7 UNK        -0.4718 
     45 CA         27.5168   -1.6287   -9.6709 C.3       7 UNK         0.0273 
     46 CB         27.9844   -3.0458   -9.3064 C.3       7 UNK        -0.1935 
     47 C          28.2561   -1.1251  -10.9249 C.2       7 UNK         0.5018 
     48 O          27.8457   -1.4452  -12.0412 O.2       7 UNK        -0.5186 
     49 N          29.3191   -0.3435  -10.7162 N.am      8 UNK        -0.4240 
     50 CA         30.1317    0.3220  -11.7248 C.3       8 UNK         0.0235 
     51 CB         31.1661   -0.6662  -12.2964 C.3       8 UNK        -0.2000 
     52 C          30.8236    1.5079  -11.0451 C.2       8 UNK         0.4941 
     53 O          30.8951    1.5467   -9.8138 O.2       8 UNK        -0.5273 
     54 N          31.3748    2.4294  -11.8468 N.am      9 UNK        -0.4262 
     55 CA         32.1459    3.5876  -11.3700 C.3       9 UNK         0.0264 
     56 CB         32.5127    4.4853  -12.5627 C.3       9 UNK        -0.1955 
     57 C          33.4092    3.2054  -10.5731 C.2       9 UNK         0.5031 
     58 O          33.8188    3.9542   -9.6850 O.2       9 UNK        -0.5390 
     59 N          33.9738    2.0280  -10.8762 N.am      10 UNK        -0.4204 
     60 CA         35.0978    1.4128  -10.1688 C.3       10 UNK         0.0237 
     61 CB         35.5894    0.2006  -10.9776 C.3       10 UNK        -0.1985 
     62 C          34.7814    0.9945   -8.7192 C.2       10 UNK         0.4970 
     63 O          35.7210    0.8116   -7.9439 O.2       10 UNK        -0.4914 
     64 N          33.4947    0.8434   -8.3712 N.am      11 UNK        -0.4285 
     65 CA         33.0443    0.5014   -7.0126 C.3       11 UNK         0.1007 
     66 C          33.1524    1.6708   -5.9909 C.2       11 UNK         0.5703 
     67 N          33.3568    2.9134   -6.4165 N.am      11 UNK        -0.7361 
     68 O          33.0771    1.4394   -4.7866 O.2       11 UNK        -0.4986 
     69 C69        31.6200   -0.1116   -7.0028 C.3       12 UNK        -0.0947 
     70 S70        31.4398   -1.5550   -8.1016 S.3       12 UNK        -0.2240 
     71 C71        32.0342   -2.9093   -7.0412 C.3       12 UNK         0.0194 
     72 H72        23.4843   -2.4106   -7.5381 H         1 UNK         0.0906 
     73 H73        24.4888   -0.9640   -7.5232 H         1 UNK         0.0906 
     74 H74        25.1728   -2.5070   -8.0455 H         1 UNK         0.0906 
     75 H75        23.6995   -3.9342   -5.8787 H         1 UNK         0.3140 
     76 H76        23.9810   -4.8425   -3.9286 H         1 UNK         0.1085 
     77 H77        25.9829   -4.2427   -2.3823 H         1 UNK         0.0836 
     78 H78        26.5809   -3.2492   -3.6712 H         1 UNK         0.0836 
     79 H79        27.0935   -4.3202   -6.1471 H         1 UNK         0.0731 
     80 H80        27.9603   -5.8330   -6.1785 H         1 UNK         0.0731 
     81 H81        29.6739   -4.2396   -7.1922 H         1 UNK         0.1312 
     82 H82        32.2472   -2.2721   -4.3943 H         1 UNK         0.1406 
     83 H83        28.6489   -4.1231   -3.0208 H         1 UNK         0.1631 
     84 H84        31.7478   -2.2338   -2.0740 H         1 UNK         0.0717 
     85 H85        30.7558   -3.5396   -1.4730 H         1 UNK         0.0717 
     86 H86        29.6935    0.7981   -2.3526 H         1 UNK         0.0934 
     87 H87        30.5417   -0.2954   -3.4026 H         1 UNK         0.0934 
     88 H88        28.2907   -1.2491   -4.1529 H         1 UNK         0.0739 
     89 H89        26.4192   -0.6530   -3.1454 H         1 UNK         0.3093 
     90 H90        25.3122    2.1911   -1.2880 H         1 UNK         0.0818 
     91 H91        24.3119    0.7110   -3.7808 H         1 UNK         0.0819 
     92 H92        23.2774    1.5217   -2.6055 H         1 UNK         0.0819 
     93 H93        24.4246    2.4482   -3.5618 H         1 UNK         0.0819 
     94 H94        24.5272   -0.6042   -1.6106 H         1 UNK         0.3041 
     95 H95        26.1896   -2.0065    0.6893 H         1 UNK         0.0784 
     96 H96        25.7828   -0.8254    2.8031 H         1 UNK         0.0793 
     97 H97        24.0723   -0.6593    2.4452 H         1 UNK         0.0793 
     98 H98        24.7652   -2.2532    2.7441 H         1 UNK         0.0793 
     99 H99        24.5891   -3.0977   -0.3434 H         1 UNK         0.3024 
    100 H100       21.7948   -3.7446   -0.3429 H         1 UNK         0.1171 
    101 H101       20.3694   -2.9668   -2.2593 H         1 UNK         0.0786 
    102 H102       20.2332   -1.9051   -0.8696 H         1 UNK         0.0786 
    103 H103       21.2069   -1.4152   -2.2484 H         1 UNK         0.0786 
    104 H104       22.9522   -4.5951   -2.0415 H         1 UNK         0.2977 
    105 H105       26.8976   -0.2437   -5.8401 H         1 UNK         0.3127 
    106 H106       28.4228    1.7802   -7.4124 H         1 UNK         0.0770 
    107 H107       25.4511    2.0158   -6.6873 H         1 UNK         0.0814 
    108 H108       26.3473    3.1009   -7.7449 H         1 UNK         0.0814 
    109 H109       26.7385    3.0287   -6.0357 H         1 UNK         0.0814 
    110 H110       28.3151   -1.0453   -7.7825 H         1 UNK         0.2983 
    111 H111       26.4543   -1.6718   -9.9197 H         1 UNK         0.0947 
    112 H112       27.7740   -3.7434  -10.1182 H         1 UNK         0.0806 
    113 H113       27.4774   -3.4206   -8.4181 H         1 UNK         0.0806 
    114 H114       29.0584   -3.0783   -9.1252 H         1 UNK         0.0806 
    115 H115       29.5768   -0.1012   -9.7665 H         1 UNK         0.3000 
    116 H116       29.4860    0.6985  -12.5211 H         1 UNK         0.0850 
    117 H117       31.7871   -0.1950  -13.0589 H         1 UNK         0.0810 
    118 H118       30.6800   -1.5225  -12.7644 H         1 UNK         0.0810 
    119 H119       31.8302   -1.0462  -11.5184 H         1 UNK         0.0810 
    120 H120       31.2736    2.3317  -12.8476 H         1 UNK         0.3040 
    121 H121       31.5011    4.1579  -10.6977 H         1 UNK         0.0766 
    122 H122       33.0662    5.3656  -12.2320 H         1 UNK         0.0812 
    123 H123       31.6223    4.8420  -13.0807 H         1 UNK         0.0812 
    124 H124       33.1374    3.9615  -13.2873 H         1 UNK         0.0812 
    125 H125       33.5653    1.4914  -11.6268 H         1 UNK         0.3205 
    126 H126       35.9048    2.1471  -10.1241 H         1 UNK         0.0754 
    127 H127       34.8165   -0.5640  -11.0691 H         1 UNK         0.0769 
    128 H128       36.4525   -0.2649  -10.4993 H         1 UNK         0.0769 
    129 H129       35.8976    0.4909  -11.9824 H         1 UNK         0.0769 
    130 H130       32.7578    1.0330   -9.0405 H         1 UNK         0.2981 
    131 H131       33.7191   -0.2706   -6.6386 H         1 UNK         0.0541 
    132 H132       33.4350    3.1145   -7.4029 H         1 UNK         0.3459 
    133 H133       33.4332    3.6578   -5.7421 H         1 UNK         0.3459 
    134 H134       30.8898    0.6358   -7.3159 H         1 UNK         0.0612 
    135 H135       31.3325   -0.4005   -5.9919 H         1 UNK         0.0612 
    136 H136       33.0205   -2.6573   -6.6492 H         1 UNK         0.0624 
    137 H137       32.1716   -3.7981   -7.6585 H         1 UNK         0.0624 
@<TRIPOS>BOND
     1    1    2 1    
     2    1   72 1    
     3    1   73 1    
     4    1   74 1    
     5    2    3 2    
     6    2    4 am   BACKBONE|DICT|INTERRES
     7    4    5 1    
     8    4   75 1    
     9    5    6 1    
    10    5   35 1    
    11    5   76 1    
    12    6    7 1    
    13    6   77 1    
    14    6   78 1    
    15    7    8 1    
    16    8    9 1    
    17    8   79 1    
    18    8   80 1    
    19    9   10 ar   
    20    9   14 ar   
    21   10   11 ar   
    22   10   81 1    
    23   11   12 ar   
    24   11   71 1    
    25   12   13 ar   
    26   12   82 1    
    27   13   14 ar   
    28   13   15 1    
    29   14   83 1    
    30   15   16 1    
    31   15   84 1    
    32   15   85 1    
    33   16   17 1    
    34   17   18 1    
    35   17   86 1    
    36   17   87 1    
    37   18   19 1    
    38   18   37 1    
    39   18   88 1    
    40   19   20 am   BACKBONE|DICT|INTERRES
    41   19   89 1    
    42   20   21 2    
    43   20   22 1    
    44   22   23 1    
    45   22   24 1    
    46   22   90 1    
    47   23   91 1    
    48   23   92 1    
    49   23   93 1    
    50   24   25 am   BACKBONE|DICT|INTERRES
    51   24   94 1    
    52   25   26 2    
    53   25   27 1    
    54   27   28 1    
    55   27   29 1    
    56   27   95 1    
    57   28   96 1    
    58   28   97 1    
    59   28   98 1    
    60   29   30 am   BACKBONE|DICT|INTERRES
    61   29   99 1    
    62   30   31 2    
    63   30   32 1    
    64   32   33 1    
    65   32   34 1    
    66   32  100 1    
    67   33  101 1    
    68   33  102 1    
    69   33  103 1    
    70   34   35 am   BACKBONE|DICT|INTERRES
    71   34  104 1    
    72   35   36 2    
    73   37   38 2    
    74   37   39 am   BACKBONE|DICT|INTERRES
    75   39   40 1    
    76   39  105 1    
    77   40   41 1    
    78   40   42 1    
    79   40  106 1    
    80   41  107 1    
    81   41  108 1    
    82   41  109 1    
    83   42   43 2    
    84   42   44 am   BACKBONE|DICT|INTERRES
    85   44   45 1    
    86   44  110 1    
    87   45   46 1    
    88   45   47 1    
    89   45  111 1    
    90   46  112 1    
    91   46  113 1    
    92   46  114 1    
    93   47   48 2    
    94   47   49 am   BACKBONE|DICT|INTERRES
    95   49   50 1    
    96   49  115 1    
    97   50   51 1    
    98   50   52 1    
    99   50  116 1    
   100   51  117 1    
   101   51  118 1    
   102   51  119 1    
   103   52   53 2    
   104   52   54 am   BACKBONE|DICT|INTERRES
   105   54   55 1    
   106   54  120 1    
   107   55   56 1    
   108   55   57 1    
   109   55  121 1    
   110   56  122 1    
   111   56  123 1    
   112   56  124 1    
   113   57   58 2    
   114   57   59 am   BACKBONE|DICT|INTERRES
   115   59   60 1    
   116   59  125 1    
   117   60   61 1    
   118   60   62 1    
   119   60  126 1    
   120   61  127 1    
   121   61  128 1    
   122   61  129 1    
   123   62   63 2    
   124   62   64 am   BACKBONE|DICT|INTERRES
   125   64   65 1    
   126   64  130 1    
   127   65   66 1    
   128   65   69 1    
   129   65  131 1    
   130   66   67 am   BACKBONE|DICT|INTERRES
   131   66   68 2    
   132   67  132 1    
   133   67  133 1    
   134   69   70 1    
   135   69  134 1    
   136   69  135 1    
   137   70   71 1    
   138   71  136 1    
   139   71  137 1    
@<TRIPOS>SUBSTRUCTURE
     1 UNK         1 GROUP             0       ****    0 ROOT    
