@<TRIPOS>MOLECULE
3R137
137   139    1
SMALL
USER_CHARGES


@<TRIPOS>ATOM
      1 CA         28.5212   -2.2300    3.2427 C.3       0 UNK        -0.2020 
      2 C          28.1511   -1.1856    2.2005 C.2       0 UNK         0.4855 
      3 O          27.8973   -0.0331    2.5509 O.2       0 UNK        -0.5197 
      4 N          28.1202   -1.5791    0.9209 N.am      1 UNK        -0.4892 
      5 CA         27.7522   -0.7231   -0.2145 C.3       1 UNK         0.0835 
      6 C6         28.1926   -1.3348   -1.5691 C.3       12 UNK        -0.0855 
      7 S7         27.6489   -3.0624   -1.8242 S.3       12 UNK        -0.2931 
      8 C8         29.2372   -3.9435   -1.9479 C.3       12 UNK         0.0378 
      9 C9         29.8249   -3.8708   -3.3512 C.ar      12 UNK        -0.0802 
     10 C10        30.9087   -3.0324   -3.6326 C.ar      12 UNK        -0.0944 
     11 C11        31.4848   -3.0102   -4.9085 C.ar      12 UNK        -0.0787 
     12 C12        30.9635   -3.8482   -5.9041 C.ar      12 UNK        -0.0862 
     13 C13        29.8725   -4.6811   -5.6398 C.ar      12 UNK        -0.0733 
     14 C14        29.3082   -4.6868   -4.3611 C.ar      12 UNK        -0.0832 
     15 C15        29.3280   -5.6065   -6.7219 C.3       12 UNK         0.0240 
     16 S16        28.5338   -4.7115   -8.0971 S.3       12 UNK        -0.2522 
     17 C17        27.1436   -3.8737   -7.2591 C.3       12 UNK        -0.0967 
     18 CA         26.8658   -2.4435   -7.7876 C.3       5 UNK         0.0660 
     19 N          25.6309   -1.9119   -7.2029 N.am      5 UNK        -0.4015 
     20 C          25.1070   -0.6914   -7.3895 C.2       4 UNK         0.4946 
     21 O          25.5923    0.1531   -8.1426 O.2       4 UNK        -0.5353 
     22 CA         23.8406   -0.3346   -6.5872 C.3       4 UNK         0.0277 
     23 CB         22.6268   -0.2304   -7.5249 C.3       4 UNK        -0.1981 
     24 N          23.5306   -1.2692   -5.4965 N.am      4 UNK        -0.4209 
     25 C          24.2633   -1.4281   -4.3854 C.2       3 UNK         0.4942 
     26 O          25.3042   -0.8082   -4.1540 O.2       3 UNK        -0.5208 
     27 CA         23.7941   -2.5298   -3.4249 C.3       3 UNK         0.0250 
     28 CB         24.4438   -3.8725   -3.8018 C.3       3 UNK        -0.1990 
     29 N          24.1448   -2.2010   -2.0447 N.am      3 UNK        -0.4232 
     30 C          23.3922   -1.4522   -1.2261 C.2       2 UNK         0.4993 
     31 O          22.2904   -0.9971   -1.5370 O.2       2 UNK        -0.5286 
     32 CA         23.9450   -1.1718    0.1845 C.3       2 UNK         0.0209 
     33 CB         23.3221   -2.1347    1.2086 C.3       2 UNK        -0.1931 
     34 N          25.4040   -1.2753    0.2573 N.am      2 UNK        -0.4546 
     35 C          26.2519   -0.3642   -0.2406 C.2       1 UNK         0.5154 
     36 O          25.8928    0.7133   -0.7177 O.2       1 UNK        -0.5181 
     37 C          28.0730   -1.4979   -7.5980 C.2       5 UNK         0.5014 
     38 O          28.8072   -1.2629   -8.5581 O.2       5 UNK        -0.5248 
     39 N          28.2159   -0.9193   -6.3961 N.am      6 UNK        -0.4434 
     40 CA         29.2799    0.0336   -6.0721 C.3       6 UNK         0.0363 
     41 CB         29.2822    0.3146   -4.5660 C.3       6 UNK        -0.1936 
     42 C          29.2093    1.3480   -6.8650 C.2       6 UNK         0.5081 
     43 O          30.2559    1.9328   -7.1438 O.2       6 UNK        -0.5248 
     44 N          27.9956    1.7845   -7.2253 N.am      7 UNK        -0.4718 
     45 CA         27.7714    2.9501   -8.0791 C.3       7 UNK         0.0273 
     46 CB         26.3724    3.5305   -7.8148 C.3       7 UNK        -0.1935 
     47 C          27.9492    2.5906   -9.5608 C.2       7 UNK         0.5018 
     48 O          28.5805    3.3529  -10.2918 O.2       7 UNK        -0.5186 
     49 N          27.4135    1.4303   -9.9683 N.am      8 UNK        -0.4240 
     50 CA         27.4746    0.9063  -11.3352 C.3       8 UNK         0.0235 
     51 CB         26.5811   -0.3392  -11.4497 C.3       8 UNK        -0.2000 
     52 C          28.9059    0.5977  -11.8052 C.2       8 UNK         0.4941 
     53 O          29.2770    0.9975  -12.9094 O.2       8 UNK        -0.5273 
     54 N          29.6880   -0.0854  -10.9580 N.am      9 UNK        -0.4262 
     55 CA         31.0984   -0.4001  -11.2065 C.3       9 UNK         0.0264 
     56 CB         31.4633   -1.6886  -10.4513 C.3       9 UNK        -0.1955 
     57 C          32.0505    0.7476  -10.8197 C.2       9 UNK         0.5031 
     58 O          33.2327    0.6771  -11.1576 O.2       9 UNK        -0.5390 
     59 N          31.5333    1.7653  -10.1136 N.am      10 UNK        -0.4204 
     60 CA         32.2224    2.9599   -9.6049 C.3       10 UNK         0.0237 
     61 CB         32.7576    3.8264  -10.7649 C.3       10 UNK        -0.1985 
     62 C          33.2965    2.6719   -8.5337 C.2       10 UNK         0.4970 
     63 O          34.1359    3.5355   -8.2716 O.2       10 UNK        -0.4914 
     64 N          33.2452    1.4844   -7.9193 N.am      11 UNK        -0.4285 
     65 CA         34.0995    1.0661   -6.7993 C.3       11 UNK         0.1007 
     66 C          33.6483    1.6050   -5.4113 C.2       11 UNK         0.5703 
     67 N          32.4613    2.1830   -5.2711 N.am      11 UNK        -0.7361 
     68 O          34.4025    1.5139   -4.4456 O.2       11 UNK        -0.4986 
     69 C69        34.3276   -0.4695   -6.7948 C.3       12 UNK        -0.0947 
     70 S70        32.7902   -1.4503   -6.8588 S.3       12 UNK        -0.2240 
     71 C71        32.7004   -2.1176   -5.1642 C.3       12 UNK         0.0194 
     72 H72        27.7071   -2.3520    3.9568 H         1 UNK         0.0906 
     73 H73        28.7263   -3.2014    2.7931 H         1 UNK         0.0906 
     74 H74        29.4098   -1.9156    3.7895 H         1 UNK         0.0906 
     75 H75        28.3343   -2.5380    0.6837 H         1 UNK         0.3140 
     76 H76        28.2853    0.2233   -0.0955 H         1 UNK         0.1085 
     77 H77        27.8039   -0.7389   -2.3959 H         1 UNK         0.0836 
     78 H78        29.2787   -1.2791   -1.6512 H         1 UNK         0.0836 
     79 H79        29.0737   -4.9898   -1.6851 H         1 UNK         0.0731 
     80 H80        29.9394   -3.5564   -1.2079 H         1 UNK         0.0731 
     81 H81        31.3173   -2.4078   -2.8501 H         1 UNK         0.1312 
     82 H82        31.4055   -3.8621   -6.8906 H         1 UNK         0.1406 
     83 H83        28.4731   -5.3385   -4.1418 H         1 UNK         0.1631 
     84 H84        28.6123   -6.3161   -6.3037 H         1 UNK         0.0717 
     85 H85        30.1483   -6.2040   -7.1221 H         1 UNK         0.0717 
     86 H86        26.2614   -4.4995   -7.4037 H         1 UNK         0.0934 
     87 H87        27.3134   -3.8474   -6.1821 H         1 UNK         0.0934 
     88 H88        26.6855   -2.5157   -8.8614 H         1 UNK         0.0739 
     89 H89        25.1420   -2.5258   -6.5705 H         1 UNK         0.3093 
     90 H90        24.0148    0.6484   -6.1442 H         1 UNK         0.0818 
     91 H91        21.7398    0.1115   -6.9911 H         1 UNK         0.0819 
     92 H92        22.8133    0.4850   -8.3274 H         1 UNK         0.0819 
     93 H93        22.3920   -1.1880   -7.9914 H         1 UNK         0.0819 
     94 H94        22.6970   -1.8293   -5.6110 H         1 UNK         0.3041 
     95 H95        22.7096   -2.6359   -3.5032 H         1 UNK         0.0784 
     96 H96        24.1306   -4.1957   -4.7952 H         1 UNK         0.0793 
     97 H97        25.5327   -3.8101   -3.8085 H         1 UNK         0.0793 
     98 H98        24.1593   -4.6604   -3.1041 H         1 UNK         0.0793 
     99 H99        25.0677   -2.4757   -1.7380 H         1 UNK         0.3024 
    100 H100       23.6556   -0.1522    0.4502 H         1 UNK         0.1171 
    101 H101       23.6529   -1.9048    2.2217 H         1 UNK         0.0786 
    102 H102       22.2335   -2.0615    1.2007 H         1 UNK         0.0786 
    103 H103       23.5803   -3.1732    0.9972 H         1 UNK         0.0786 
    104 H104       25.7909   -2.1252    0.6419 H         1 UNK         0.2977 
    105 H105       27.5512   -1.1328   -5.6650 H         1 UNK         0.3127 
    106 H106       30.2268   -0.4404   -6.3259 H         1 UNK         0.0770 
    107 H107       28.3264    0.7173   -4.2288 H         1 UNK         0.0814 
    108 H108       30.0547    1.0361   -4.2995 H         1 UNK         0.0814 
    109 H109       29.4922   -0.5964   -4.0093 H         1 UNK         0.0814 
    110 H110       27.1888    1.2103   -7.0172 H         1 UNK         0.2983 
    111 H111       28.5062    3.7197   -7.8307 H         1 UNK         0.0947 
    112 H112       26.2012    4.4206   -8.4216 H         1 UNK         0.0806 
    113 H113       26.2566    3.8233   -6.7712 H         1 UNK         0.0806 
    114 H114       25.5811    2.8190   -8.0524 H         1 UNK         0.0806 
    115 H115       26.8765    0.8878   -9.2945 H         1 UNK         0.3000 
    116 H116       27.0694    1.6752  -11.9964 H         1 UNK         0.0850 
    117 H117       26.5673   -0.7169  -12.4730 H         1 UNK         0.0810 
    118 H118       25.5509   -0.1161  -11.1711 H         1 UNK         0.0810 
    119 H119       26.9327   -1.1473  -10.8084 H         1 UNK         0.0810 
    120 H120       29.2968   -0.4224  -10.0768 H         1 UNK         0.3040 
    121 H121       31.2384   -0.5878  -12.2732 H         1 UNK         0.0766 
    122 H122       31.3255   -1.5757   -9.3767 H         1 UNK         0.0812 
    123 H123       32.5048   -1.9650  -10.6202 H         1 UNK         0.0812 
    124 H124       30.8471   -2.5267  -10.7768 H         1 UNK         0.0812 
    125 H125       30.5492    1.7150   -9.8882 H         1 UNK         0.3205 
    126 H126       31.4533    3.5426   -9.0956 H         1 UNK         0.0754 
    127 H127       33.1219    4.7880  -10.4013 H         1 UNK         0.0769 
    128 H128       31.9758    4.0344  -11.4956 H         1 UNK         0.0769 
    129 H129       33.5845    3.3422  -11.2851 H         1 UNK         0.0769 
    130 H130       32.4969    0.8509   -8.1576 H         1 UNK         0.2981 
    131 H131       35.0815    1.5140   -6.9621 H         1 UNK         0.0541 
    132 H132       31.8068    2.2191   -6.0468 H         1 UNK         0.3459 
    133 H133       32.1964    2.5458   -4.3704 H         1 UNK         0.3459 
    134 H134       34.9316   -0.7756   -5.9387 H         1 UNK         0.0612 
    135 H135       34.9141   -0.7420   -7.6733 H         1 UNK         0.0612 
    136 H136       33.6031   -2.6950   -4.9616 H         1 UNK         0.0624 
    137 H137       32.6988   -1.2772   -4.4682 H         1 UNK         0.0624 
@<TRIPOS>BOND
     1    1    2 1    
     2    1   72 1    
     3    1   73 1    
     4    1   74 1    
     5    2    3 2    
     6    2    4 am   BACKBONE|DICT|INTERRES
     7    4    5 1    
     8    4   75 1    
     9    5    6 1    
    10    5   35 1    
    11    5   76 1    
    12    6    7 1    
    13    6   77 1    
    14    6   78 1    
    15    7    8 1    
    16    8    9 1    
    17    8   79 1    
    18    8   80 1    
    19    9   10 ar   
    20    9   14 ar   
    21   10   11 ar   
    22   10   81 1    
    23   11   12 ar   
    24   11   71 1    
    25   12   13 ar   
    26   12   82 1    
    27   13   14 ar   
    28   13   15 1    
    29   14   83 1    
    30   15   16 1    
    31   15   84 1    
    32   15   85 1    
    33   16   17 1    
    34   17   18 1    
    35   17   86 1    
    36   17   87 1    
    37   18   19 1    
    38   18   37 1    
    39   18   88 1    
    40   19   20 am   BACKBONE|DICT|INTERRES
    41   19   89 1    
    42   20   21 2    
    43   20   22 1    
    44   22   23 1    
    45   22   24 1    
    46   22   90 1    
    47   23   91 1    
    48   23   92 1    
    49   23   93 1    
    50   24   25 am   BACKBONE|DICT|INTERRES
    51   24   94 1    
    52   25   26 2    
    53   25   27 1    
    54   27   28 1    
    55   27   29 1    
    56   27   95 1    
    57   28   96 1    
    58   28   97 1    
    59   28   98 1    
    60   29   30 am   BACKBONE|DICT|INTERRES
    61   29   99 1    
    62   30   31 2    
    63   30   32 1    
    64   32   33 1    
    65   32   34 1    
    66   32  100 1    
    67   33  101 1    
    68   33  102 1    
    69   33  103 1    
    70   34   35 am   BACKBONE|DICT|INTERRES
    71   34  104 1    
    72   35   36 2    
    73   37   38 2    
    74   37   39 am   BACKBONE|DICT|INTERRES
    75   39   40 1    
    76   39  105 1    
    77   40   41 1    
    78   40   42 1    
    79   40  106 1    
    80   41  107 1    
    81   41  108 1    
    82   41  109 1    
    83   42   43 2    
    84   42   44 am   BACKBONE|DICT|INTERRES
    85   44   45 1    
    86   44  110 1    
    87   45   46 1    
    88   45   47 1    
    89   45  111 1    
    90   46  112 1    
    91   46  113 1    
    92   46  114 1    
    93   47   48 2    
    94   47   49 am   BACKBONE|DICT|INTERRES
    95   49   50 1    
    96   49  115 1    
    97   50   51 1    
    98   50   52 1    
    99   50  116 1    
   100   51  117 1    
   101   51  118 1    
   102   51  119 1    
   103   52   53 2    
   104   52   54 am   BACKBONE|DICT|INTERRES
   105   54   55 1    
   106   54  120 1    
   107   55   56 1    
   108   55   57 1    
   109   55  121 1    
   110   56  122 1    
   111   56  123 1    
   112   56  124 1    
   113   57   58 2    
   114   57   59 am   BACKBONE|DICT|INTERRES
   115   59   60 1    
   116   59  125 1    
   117   60   61 1    
   118   60   62 1    
   119   60  126 1    
   120   61  127 1    
   121   61  128 1    
   122   61  129 1    
   123   62   63 2    
   124   62   64 am   BACKBONE|DICT|INTERRES
   125   64   65 1    
   126   64  130 1    
   127   65   66 1    
   128   65   69 1    
   129   65  131 1    
   130   66   67 am   BACKBONE|DICT|INTERRES
   131   66   68 2    
   132   67  132 1    
   133   67  133 1    
   134   69   70 1    
   135   69  134 1    
   136   69  135 1    
   137   70   71 1    
   138   71  136 1    
   139   71  137 1    
@<TRIPOS>SUBSTRUCTURE
     1 UNK         1 GROUP             0       ****    0 ROOT    
