@<TRIPOS>MOLECULE
3R137
137   139    1
SMALL
USER_CHARGES


@<TRIPOS>ATOM
      1 CA         25.6804   -6.0224   -5.9872 C.3       0 UNK        -0.2020 
      2 C          25.7635   -5.6137   -4.5247 C.2       0 UNK         0.4855 
      3 O          24.7454   -5.2721   -3.9220 O.2       0 UNK        -0.5197 
      4 N          26.9739   -5.6376   -3.9528 N.am      1 UNK        -0.4892 
      5 CA         27.2843   -5.2420   -2.5746 C.3       1 UNK         0.0835 
      6 C6         28.7721   -5.5277   -2.2632 C.3       12 UNK        -0.0855 
      7 S7         29.1735   -5.3582   -0.4931 S.3       12 UNK        -0.2931 
      8 C8         30.8408   -4.6258   -0.5786 C.3       12 UNK         0.0378 
      9 C9         30.8600   -3.2339   -1.2025 C.ar      12 UNK        -0.0802 
     10 C10        31.6886   -2.9654   -2.2986 C.ar      12 UNK        -0.0944 
     11 C11        31.7707   -1.6735   -2.8280 C.ar      12 UNK        -0.0787 
     12 C12        31.0128   -0.6508   -2.2526 C.ar      12 UNK        -0.0862 
     13 C13        30.1516   -0.9088   -1.1823 C.ar      12 UNK        -0.0733 
     14 C14        30.0863   -2.2033   -0.6578 C.ar      12 UNK        -0.0832 
     15 C15        29.3248    0.2109   -0.5621 C.3       12 UNK         0.0240 
     16 S16        27.8831    0.6665   -1.5822 S.3       12 UNK        -0.2522 
     17 C17        28.6090    1.8828   -2.7366 C.3       12 UNK        -0.0967 
     18 CA         28.3327    1.6428   -4.2502 C.3       5 UNK         0.0660 
     19 N          28.1097    0.2397   -4.6277 N.am      5 UNK        -0.4015 
     20 C          28.1826   -0.2132   -5.8890 C.2       4 UNK         0.4946 
     21 O          28.5273    0.4811   -6.8429 O.2       4 UNK        -0.5353 
     22 CA         27.7213   -1.6512   -6.1567 C.3       4 UNK         0.0277 
     23 CB         28.8223   -2.6684   -5.8146 C.3       4 UNK        -0.1981 
     24 N          26.4740   -1.9568   -5.4537 N.am      4 UNK        -0.4209 
     25 C          25.2816   -1.4549   -5.8181 C.2       3 UNK         0.4942 
     26 O          25.1390   -0.6982   -6.7782 O.2       3 UNK        -0.5208 
     27 CA         24.0392   -1.8239   -4.9868 C.3       3 UNK         0.0250 
     28 CB         23.1719   -2.8539   -5.7271 C.3       3 UNK        -0.1990 
     29 N          24.3727   -2.3192   -3.6515 N.am      3 UNK        -0.4232 
     30 C          24.7477   -1.5214   -2.6401 C.2       2 UNK         0.4993 
     31 O          24.7471   -0.2925   -2.7151 O.2       2 UNK        -0.5286 
     32 CA         25.2437   -2.1999   -1.3470 C.3       2 UNK         0.0209 
     33 CB         24.1025   -2.3079   -0.3235 C.3       2 UNK        -0.1931 
     34 N          25.8344   -3.5274   -1.5598 N.am      2 UNK        -0.4546 
     35 C          26.9007   -3.7654   -2.3369 C.2       1 UNK         0.5154 
     36 O          27.5164   -2.8771   -2.9253 O.2       1 UNK        -0.5181 
     37 C          27.2357    2.5869   -4.7860 C.2       5 UNK         0.5014 
     38 O          27.5434    3.7486   -5.0561 O.2       5 UNK        -0.5248 
     39 N          25.9986    2.0932   -4.9560 N.am      6 UNK        -0.4434 
     40 CA         24.9075    2.8412   -5.5906 C.3       6 UNK         0.0363 
     41 CB         23.5651    2.1311   -5.3555 C.3       6 UNK        -0.1936 
     42 C          25.1575    3.0684   -7.0930 C.2       6 UNK         0.5081 
     43 O          24.9308    4.1754   -7.5821 O.2       6 UNK        -0.5248 
     44 N          25.6440    2.0310   -7.7904 N.am      7 UNK        -0.4718 
     45 CA         26.0847    2.1028   -9.1875 C.3       7 UNK         0.0273 
     46 CB         26.2323    0.6777   -9.7439 C.3       7 UNK        -0.1935 
     47 C          27.3999    2.8842   -9.3620 C.2       7 UNK         0.5018 
     48 O          27.5998    3.5071  -10.4058 O.2       7 UNK        -0.5186 
     49 N          28.2769    2.8131   -8.3510 N.am      8 UNK        -0.4240 
     50 CA         29.6043    3.4221   -8.2077 C.3       8 UNK         0.0235 
     51 CB         29.5539    4.9575   -8.3248 C.3       8 UNK        -0.2000 
     52 C          30.6608    2.8103   -9.1395 C.2       8 UNK         0.4941 
     53 O          31.7112    2.3809   -8.6620 O.2       8 UNK        -0.5273 
     54 N          30.3576    2.7447  -10.4425 N.am      9 UNK        -0.4262 
     55 CA         31.2124    2.1682  -11.4857 C.3       9 UNK         0.0264 
     56 CB         30.5907    2.4507  -12.8624 C.3       9 UNK        -0.1955 
     57 C          31.4690    0.6607  -11.3100 C.2       9 UNK         0.5031 
     58 O          32.5236    0.1751  -11.7211 O.2       9 UNK        -0.5390 
     59 N          30.5213   -0.0446  -10.6759 N.am      10 UNK        -0.4204 
     60 CA         30.5917   -1.4729  -10.3558 C.3       10 UNK         0.0237 
     61 CB         29.2458   -1.9160   -9.7656 C.3       10 UNK        -0.1985 
     62 C          31.7438   -1.8494   -9.4051 C.2       10 UNK         0.4970 
     63 O          32.2150   -2.9857   -9.4643 O.2       10 UNK        -0.4914 
     64 N          32.1867   -0.9008   -8.5696 N.am      11 UNK        -0.4285 
     65 CA         33.3734   -1.0383   -7.7122 C.3       11 UNK         0.1007 
     66 C          34.7218   -0.8263   -8.4643 C.2       11 UNK         0.5703 
     67 N          34.7386   -0.4526   -9.7399 N.am      11 UNK        -0.7361 
     68 O          35.7843   -1.0222   -7.8788 O.2       11 UNK        -0.4986 
     69 C69        33.2770   -0.1343   -6.4558 C.3       12 UNK        -0.0947 
     70 S70        31.8656   -0.5701   -5.3856 S.3       12 UNK        -0.2240 
     71 C71        32.7170   -1.3628   -3.9823 C.3       12 UNK         0.0194 
     72 H72        24.7843   -6.6170   -6.1629 H         1 UNK         0.0906 
     73 H73        25.6354   -5.1388   -6.6231 H         1 UNK         0.0906 
     74 H74        26.5422   -6.6169   -6.2897 H         1 UNK         0.0906 
     75 H75        27.7695   -5.9128   -4.5107 H         1 UNK         0.3140 
     76 H76        26.6764   -5.8684   -1.9180 H         1 UNK         0.1085 
     77 H77        29.4158   -4.8825   -2.8642 H         1 UNK         0.0836 
     78 H78        29.0231   -6.5500   -2.5509 H         1 UNK         0.0836 
     79 H79        31.4949   -5.3071   -1.1253 H         1 UNK         0.0731 
     80 H80        31.2457   -4.5602    0.4322 H         1 UNK         0.0731 
     81 H81        32.2910   -3.7567   -2.7234 H         1 UNK         0.1312 
     82 H82        31.1055    0.3472   -2.6506 H         1 UNK         0.1406 
     83 H83        29.4397   -2.4117    0.1838 H         1 UNK         0.1631 
     84 H84        29.9520    1.0855   -0.3839 H         1 UNK         0.0717 
     85 H85        28.9597   -0.0956    0.4192 H         1 UNK         0.0717 
     86 H86        28.2688    2.8713   -2.4194 H         1 UNK         0.0934 
     87 H87        29.6843    1.9302   -2.5803 H         1 UNK         0.0934 
     88 H88        29.2420    1.9485   -4.7741 H         1 UNK         0.0739 
     89 H89        27.8435   -0.3912   -3.8821 H         1 UNK         0.3093 
     90 H90        27.5126   -1.7428   -7.2236 H         1 UNK         0.0818 
     91 H91        29.2002   -2.5421   -4.7995 H         1 UNK         0.0819 
     92 H92        28.4692   -3.6936   -5.9208 H         1 UNK         0.0819 
     93 H93        29.6745   -2.5473   -6.4846 H         1 UNK         0.0819 
     94 H94        26.5611   -2.4910   -4.5949 H         1 UNK         0.3041 
     95 H95        23.4410   -0.9182   -4.8736 H         1 UNK         0.0784 
     96 H96        22.8469   -2.4639   -6.6927 H         1 UNK         0.0793 
     97 H97        23.7107   -3.7804   -5.9187 H         1 UNK         0.0793 
     98 H98        22.2745   -3.0992   -5.1589 H         1 UNK         0.0793 
     99 H99        24.4117   -3.3280   -3.5320 H         1 UNK         0.3024 
    100 H100       26.0221   -1.5592   -0.9280 H         1 UNK         0.1171 
    101 H101       24.4595   -2.6970    0.6302 H         1 UNK         0.0786 
    102 H102       23.6619   -1.3292   -0.1273 H         1 UNK         0.0786 
    103 H103       23.3032   -2.9606   -0.6770 H         1 UNK         0.0786 
    104 H104       25.3502   -4.3102   -1.1437 H         1 UNK         0.2977 
    105 H105       25.8053    1.1441   -4.6683 H         1 UNK         0.3127 
    106 H106       24.8545    3.8203   -5.1093 H         1 UNK         0.0770 
    107 H107       23.4957    1.1974   -5.9117 H         1 UNK         0.0814 
    108 H108       22.7365    2.7596   -5.6837 H         1 UNK         0.0814 
    109 H109       23.4071    1.9100   -4.2995 H         1 UNK         0.0814 
    110 H110       25.7228    1.1272   -7.3326 H         1 UNK         0.2983 
    111 H111       25.3154    2.6205   -9.7647 H         1 UNK         0.0947 
    112 H112       26.5586    0.6926  -10.7847 H         1 UNK         0.0806 
    113 H113       25.2845    0.1401   -9.7081 H         1 UNK         0.0806 
    114 H114       26.9619    0.0988   -9.1771 H         1 UNK         0.0806 
    115 H115       28.0608    2.1395   -7.6198 H         1 UNK         0.3000 
    116 H116       29.9163    3.1855   -7.1889 H         1 UNK         0.0850 
    117 H117       30.5313    5.3940   -8.1156 H         1 UNK         0.0810 
    118 H118       28.8490    5.3819   -7.6095 H         1 UNK         0.0810 
    119 H119       29.2594    5.2870   -9.3214 H         1 UNK         0.0810 
    120 H120       29.4509    3.1095  -10.7252 H         1 UNK         0.3040 
    121 H121       32.1805    2.6708  -11.4351 H         1 UNK         0.0766 
    122 H122       30.4880    3.5215  -13.0390 H         1 UNK         0.0812 
    123 H123       29.6031    1.9981  -12.9606 H         1 UNK         0.0812 
    124 H124       31.2149    2.0502  -13.6627 H         1 UNK         0.0812 
    125 H125       29.6988    0.4503  -10.3650 H         1 UNK         0.3205 
    126 H126       30.7533   -2.0137  -11.2906 H         1 UNK         0.0754 
    127 H127       29.2591   -2.9736   -9.4977 H         1 UNK         0.0769 
    128 H128       28.4305   -1.7710  -10.4747 H         1 UNK         0.0769 
    129 H129       29.0146   -1.3512   -8.8641 H         1 UNK         0.0769 
    130 H130       31.7627    0.0171   -8.5882 H         1 UNK         0.2981 
    131 H131       33.4075   -2.0697   -7.3559 H         1 UNK         0.0541 
    132 H132       35.6267   -0.3306  -10.1994 H         1 UNK         0.3459 
    133 H133       33.8822   -0.2964  -10.2587 H         1 UNK         0.3459 
    134 H134       34.1934   -0.1895   -5.8656 H         1 UNK         0.0612 
    135 H135       33.1723    0.9115   -6.7492 H         1 UNK         0.0612 
    136 H136       33.5027   -0.7008   -3.6159 H         1 UNK         0.0624 
    137 H137       33.2088   -2.2694   -4.3381 H         1 UNK         0.0624 
@<TRIPOS>BOND
     1    1    2 1    
     2    1   72 1    
     3    1   73 1    
     4    1   74 1    
     5    2    3 2    
     6    2    4 am   BACKBONE|DICT|INTERRES
     7    4    5 1    
     8    4   75 1    
     9    5    6 1    
    10    5   35 1    
    11    5   76 1    
    12    6    7 1    
    13    6   77 1    
    14    6   78 1    
    15    7    8 1    
    16    8    9 1    
    17    8   79 1    
    18    8   80 1    
    19    9   10 ar   
    20    9   14 ar   
    21   10   11 ar   
    22   10   81 1    
    23   11   12 ar   
    24   11   71 1    
    25   12   13 ar   
    26   12   82 1    
    27   13   14 ar   
    28   13   15 1    
    29   14   83 1    
    30   15   16 1    
    31   15   84 1    
    32   15   85 1    
    33   16   17 1    
    34   17   18 1    
    35   17   86 1    
    36   17   87 1    
    37   18   19 1    
    38   18   37 1    
    39   18   88 1    
    40   19   20 am   BACKBONE|DICT|INTERRES
    41   19   89 1    
    42   20   21 2    
    43   20   22 1    
    44   22   23 1    
    45   22   24 1    
    46   22   90 1    
    47   23   91 1    
    48   23   92 1    
    49   23   93 1    
    50   24   25 am   BACKBONE|DICT|INTERRES
    51   24   94 1    
    52   25   26 2    
    53   25   27 1    
    54   27   28 1    
    55   27   29 1    
    56   27   95 1    
    57   28   96 1    
    58   28   97 1    
    59   28   98 1    
    60   29   30 am   BACKBONE|DICT|INTERRES
    61   29   99 1    
    62   30   31 2    
    63   30   32 1    
    64   32   33 1    
    65   32   34 1    
    66   32  100 1    
    67   33  101 1    
    68   33  102 1    
    69   33  103 1    
    70   34   35 am   BACKBONE|DICT|INTERRES
    71   34  104 1    
    72   35   36 2    
    73   37   38 2    
    74   37   39 am   BACKBONE|DICT|INTERRES
    75   39   40 1    
    76   39  105 1    
    77   40   41 1    
    78   40   42 1    
    79   40  106 1    
    80   41  107 1    
    81   41  108 1    
    82   41  109 1    
    83   42   43 2    
    84   42   44 am   BACKBONE|DICT|INTERRES
    85   44   45 1    
    86   44  110 1    
    87   45   46 1    
    88   45   47 1    
    89   45  111 1    
    90   46  112 1    
    91   46  113 1    
    92   46  114 1    
    93   47   48 2    
    94   47   49 am   BACKBONE|DICT|INTERRES
    95   49   50 1    
    96   49  115 1    
    97   50   51 1    
    98   50   52 1    
    99   50  116 1    
   100   51  117 1    
   101   51  118 1    
   102   51  119 1    
   103   52   53 2    
   104   52   54 am   BACKBONE|DICT|INTERRES
   105   54   55 1    
   106   54  120 1    
   107   55   56 1    
   108   55   57 1    
   109   55  121 1    
   110   56  122 1    
   111   56  123 1    
   112   56  124 1    
   113   57   58 2    
   114   57   59 am   BACKBONE|DICT|INTERRES
   115   59   60 1    
   116   59  125 1    
   117   60   61 1    
   118   60   62 1    
   119   60  126 1    
   120   61  127 1    
   121   61  128 1    
   122   61  129 1    
   123   62   63 2    
   124   62   64 am   BACKBONE|DICT|INTERRES
   125   64   65 1    
   126   64  130 1    
   127   65   66 1    
   128   65   69 1    
   129   65  131 1    
   130   66   67 am   BACKBONE|DICT|INTERRES
   131   66   68 2    
   132   67  132 1    
   133   67  133 1    
   134   69   70 1    
   135   69  134 1    
   136   69  135 1    
   137   70   71 1    
   138   71  136 1    
   139   71  137 1    
@<TRIPOS>SUBSTRUCTURE
     1 UNK         1 GROUP             0       ****    0 ROOT    
