@<TRIPOS>MOLECULE
3R137
137   139    1
SMALL
USER_CHARGES


@<TRIPOS>ATOM
      1 CA         23.3673   -5.2158   -1.5585 C.3       0 UNK        -0.2020 
      2 C          24.6699   -4.4893   -1.8558 C.2       0 UNK         0.4855 
      3 O          24.8856   -4.0681   -2.9909 O.2       0 UNK        -0.5197 
      4 N          25.5290   -4.3285   -0.8397 N.am      1 UNK        -0.4892 
      5 CA         26.8502   -3.6871   -0.9028 C.3       1 UNK         0.0835 
      6 C6         27.8923   -4.5472   -1.6684 C.3       12 UNK        -0.0855 
      7 S7         29.5452   -4.4088   -0.9151 S.3       12 UNK        -0.2931 
      8 C8         30.6265   -4.6310   -2.3643 C.3       12 UNK         0.0378 
      9 C9         30.7567   -3.3929   -3.2478 C.ar      12 UNK        -0.0802 
     10 C10        30.7952   -3.5432   -4.6367 C.ar      12 UNK        -0.0944 
     11 C11        31.0408   -2.4457   -5.4662 C.ar      12 UNK        -0.0787 
     12 C12        31.2160   -1.1807   -4.8981 C.ar      12 UNK        -0.0862 
     13 C13        31.1445   -1.0035   -3.5129 C.ar      12 UNK        -0.0733 
     14 C14        30.9257   -2.1173   -2.6950 C.ar      12 UNK        -0.0832 
     15 C15        31.3521    0.3718   -2.8797 C.3       12 UNK         0.0240 
     16 S16        30.4708    1.7325   -3.7238 S.3       12 UNK        -0.2522 
     17 C17        28.7409    1.1609   -3.6588 C.3       12 UNK        -0.0967 
     18 CA         28.1963    0.8391   -5.0764 C.3       5 UNK         0.0660 
     19 N          27.3936   -0.3860   -5.0933 N.am      5 UNK        -0.4015 
     20 C          26.9465   -0.9860   -6.2063 C.2       4 UNK         0.4946 
     21 O          27.1726   -0.5854   -7.3482 O.2       4 UNK        -0.5353 
     22 CA         26.0469   -2.2150   -6.0093 C.3       4 UNK         0.0277 
     23 CB         26.8929   -3.4530   -5.6729 C.3       4 UNK        -0.1981 
     24 N          25.0334   -1.9968   -4.9734 N.am      4 UNK        -0.4209 
     25 C          24.0699   -1.0651   -5.0458 C.2       3 UNK         0.4942 
     26 O          23.8884   -0.3423   -6.0243 O.2       3 UNK        -0.5208 
     27 CA         23.1951   -0.8603   -3.7997 C.3       3 UNK         0.0250 
     28 CB         22.1049   -1.9393   -3.7024 C.3       3 UNK        -0.1990 
     29 N          23.9840   -0.8205   -2.5663 N.am      3 UNK        -0.4232 
     30 C          24.8801    0.1337   -2.2716 C.2       2 UNK         0.4993 
     31 O          25.1180    1.0980   -2.9957 O.2       2 UNK        -0.5286 
     32 CA         25.6762   -0.0283   -0.9678 C.3       2 UNK         0.0209 
     33 CB         24.9318    0.6272    0.2059 C.3       2 UNK        -0.1931 
     34 N          25.9699   -1.4265   -0.6463 N.am      2 UNK        -0.4546 
     35 C          26.7529   -2.2231   -1.3881 C.2       1 UNK         0.5154 
     36 O          27.3098   -1.8501   -2.4237 O.2       1 UNK        -0.5181 
     37 C          27.4540    2.0425   -5.6980 C.2       5 UNK         0.5014 
     38 O          28.0458    2.7803   -6.4859 O.2       5 UNK        -0.5248 
     39 N          26.1669    2.2075   -5.3585 N.am      6 UNK        -0.4434 
     40 CA         25.2831    3.2273   -5.9270 C.3       6 UNK         0.0363 
     41 CB         23.9699    3.2788   -5.1300 C.3       6 UNK        -0.1936 
     42 C          24.9980    3.0122   -7.4230 C.2       6 UNK         0.5081 
     43 O          24.9212    3.9937   -8.1629 O.2       6 UNK        -0.5248 
     44 N          24.8452    1.7476   -7.8424 N.am      7 UNK        -0.4718 
     45 CA         24.6397    1.3571   -9.2379 C.3       7 UNK         0.0273 
     46 CB         24.2131   -0.1177   -9.3198 C.3       7 UNK        -0.1935 
     47 C          25.8742    1.6280  -10.1118 C.2       7 UNK         0.5018 
     48 O          25.7377    2.2778  -11.1500 O.2       7 UNK        -0.5186 
     49 N          27.0485    1.1505   -9.6785 N.am      8 UNK        -0.4240 
     50 CA         28.3221    1.3595  -10.3613 C.3       8 UNK         0.0235 
     51 CB         28.4007    0.5178  -11.6530 C.3       8 UNK        -0.2000 
     52 C          29.4737    1.0139   -9.4142 C.2       8 UNK         0.4941 
     53 O          29.7854   -0.1656   -9.2410 O.2       8 UNK        -0.5273 
     54 N          30.1479    2.0357   -8.8711 N.am      9 UNK        -0.4262 
     55 CA         31.3374    1.9124   -8.0162 C.3       9 UNK         0.0264 
     56 CB         31.5176    3.2114   -7.2087 C.3       9 UNK        -0.1955 
     57 C          32.6187    1.5219   -8.7906 C.2       9 UNK         0.5031 
     58 O          33.6985    2.0409   -8.5029 O.2       9 UNK        -0.5390 
     59 N          32.4866    0.6056   -9.7579 N.am      10 UNK        -0.4204 
     60 CA         33.5600    0.0982  -10.6180 C.3       10 UNK         0.0237 
     61 CB         32.9288   -0.6015  -11.8331 C.3       10 UNK        -0.1985 
     62 C          34.5307   -0.8506   -9.8921 C.2       10 UNK         0.4970 
     63 O          35.6168   -1.1129  -10.4101 O.2       10 UNK        -0.4914 
     64 N          34.1215   -1.3480   -8.7192 N.am      11 UNK        -0.4285 
     65 CA         34.8925   -2.2393   -7.8434 C.3       11 UNK         0.1007 
     66 C          36.1490   -1.5876   -7.1933 C.2       11 UNK         0.5703 
     67 N          36.2905   -0.2667   -7.1901 N.am      11 UNK        -0.7361 
     68 O          37.0134   -2.2977   -6.6861 O.2       11 UNK        -0.4986 
     69 C69        33.9875   -2.8741   -6.7563 C.3       12 UNK        -0.0947 
     70 S70        32.5279   -3.7413   -7.4362 S.3       12 UNK        -0.2240 
     71 C71        31.1527   -2.6324   -6.9735 C.3       12 UNK         0.0194 
     72 H72        22.5240   -4.5330   -1.6557 H         1 UNK         0.0906 
     73 H73        23.2264   -6.0334   -2.2648 H         1 UNK         0.0906 
     74 H74        23.3529   -5.6334   -0.5520 H         1 UNK         0.0906 
     75 H75        25.2747   -4.6898    0.0701 H         1 UNK         0.3140 
     76 H76        27.1713   -3.6265    0.1387 H         1 UNK         0.1085 
     77 H77        27.9266   -4.3043   -2.7307 H         1 UNK         0.0836 
     78 H78        27.6181   -5.6022   -1.6221 H         1 UNK         0.0836 
     79 H79        30.2685   -5.4851   -2.9414 H         1 UNK         0.0731 
     80 H80        31.6228   -4.8986   -2.0105 H         1 UNK         0.0731 
     81 H81        30.6811   -4.5245   -5.0768 H         1 UNK         0.1312 
     82 H82        31.4185   -0.3305   -5.5318 H         1 UNK         0.1406 
     83 H83        30.9063   -1.9956   -1.6208 H         1 UNK         0.1631 
     84 H84        32.4193    0.5961   -2.8793 H         1 UNK         0.0717 
     85 H85        31.0394    0.3620   -1.8343 H         1 UNK         0.0717 
     86 H86        28.7007    0.2789   -3.0193 H         1 UNK         0.0934 
     87 H87        28.1342    1.9085   -3.1435 H         1 UNK         0.0934 
     88 H88        29.0397    0.6279   -5.7375 H         1 UNK         0.0739 
     89 H89        27.1918   -0.8154   -4.1954 H         1 UNK         0.3093 
     90 H90        25.5237   -2.4031   -6.9489 H         1 UNK         0.0818 
     91 H91        27.6035   -3.6673   -6.4721 H         1 UNK         0.0819 
     92 H92        27.4690   -3.3084   -4.7594 H         1 UNK         0.0819 
     93 H93        26.2708   -4.3383   -5.5412 H         1 UNK         0.0819 
     94 H94        25.0844   -2.5934   -4.1495 H         1 UNK         0.3041 
     95 H95        22.6995    0.1077   -3.9019 H         1 UNK         0.0784 
     96 H96        21.4671   -1.9232   -4.5872 H         1 UNK         0.0793 
     97 H97        22.5269   -2.9411   -3.6286 H         1 UNK         0.0793 
     98 H98        21.4612   -1.7788   -2.8376 H         1 UNK         0.0793 
     99 H99        23.8795   -1.5945   -1.9279 H         1 UNK         0.3024 
    100 H100       26.6279    0.4906   -1.1036 H         1 UNK         0.1171 
    101 H101       25.5261    0.5971    1.1194 H         1 UNK         0.0786 
    102 H102       24.7196    1.6763   -0.0055 H         1 UNK         0.0786 
    103 H103       23.9790    0.1363    0.4075 H         1 UNK         0.0786 
    104 H104       25.5281   -1.8102    0.1770 H         1 UNK         0.2977 
    105 H105       25.7634    1.6096   -4.6387 H         1 UNK         0.3127 
    106 H106       25.7814    4.1933   -5.8221 H         1 UNK         0.0770 
    107 H107       23.4397    2.3265   -5.1665 H         1 UNK         0.0814 
    108 H108       23.3003    4.0423   -5.5281 H         1 UNK         0.0814 
    109 H109       24.1513    3.5203   -4.0826 H         1 UNK         0.0814 
    110 H110       24.8517    0.9995   -7.1549 H         1 UNK         0.2983 
    111 H111       23.8203    1.9620   -9.6324 H         1 UNK         0.0947 
    112 H112       24.9691   -0.7838   -8.9043 H         1 UNK         0.0806 
    113 H113       24.0458   -0.4187  -10.3547 H         1 UNK         0.0806 
    114 H114       23.2835   -0.2906   -8.7775 H         1 UNK         0.0806 
    115 H115       27.0873    0.6105   -8.8129 H         1 UNK         0.3000 
    116 H116       28.4030    2.4140  -10.6326 H         1 UNK         0.0850 
    117 H117       29.3823    0.6084  -12.1192 H         1 UNK         0.0810 
    118 H118       27.6662    0.8399  -12.3907 H         1 UNK         0.0810 
    119 H119       28.2309   -0.5407  -11.4533 H         1 UNK         0.0810 
    120 H120       29.8351    2.9769   -9.0617 H         1 UNK         0.3040 
    121 H121       31.1485    1.1104   -7.3018 H         1 UNK         0.0766 
    122 H122       30.6269    3.4458   -6.6264 H         1 UNK         0.0812 
    123 H123       31.7314    4.0627   -7.8558 H         1 UNK         0.0812 
    124 H124       32.3422    3.1225   -6.5002 H         1 UNK         0.0812 
    125 H125       31.5642    0.1926   -9.8730 H         1 UNK         0.3205 
    126 H126       34.1434    0.9498  -10.9742 H         1 UNK         0.0754 
    127 H127       33.6960   -0.9681  -12.5168 H         1 UNK         0.0769 
    128 H128       32.2936    0.0809  -12.3983 H         1 UNK         0.0769 
    129 H129       32.3209   -1.4568  -11.5350 H         1 UNK         0.0769 
    130 H130       33.2086   -1.0868   -8.3843 H         1 UNK         0.2981 
    131 H131       35.2671   -3.0490   -8.4723 H         1 UNK         0.0541 
    132 H132       35.5893    0.3270   -7.6058 H         1 UNK         0.3459 
    133 H133       37.1108    0.1400   -6.7691 H         1 UNK         0.3459 
    134 H134       34.5526   -3.6064   -6.1769 H         1 UNK         0.0612 
    135 H135       33.6697   -2.1132   -6.0428 H         1 UNK         0.0612 
    136 H136       31.2829   -1.6738   -7.4766 H         1 UNK         0.0624 
    137 H137       30.2179   -3.0497   -7.3501 H         1 UNK         0.0624 
@<TRIPOS>BOND
     1    1    2 1    
     2    1   72 1    
     3    1   73 1    
     4    1   74 1    
     5    2    3 2    
     6    2    4 am   BACKBONE|DICT|INTERRES
     7    4    5 1    
     8    4   75 1    
     9    5    6 1    
    10    5   35 1    
    11    5   76 1    
    12    6    7 1    
    13    6   77 1    
    14    6   78 1    
    15    7    8 1    
    16    8    9 1    
    17    8   79 1    
    18    8   80 1    
    19    9   10 ar   
    20    9   14 ar   
    21   10   11 ar   
    22   10   81 1    
    23   11   12 ar   
    24   11   71 1    
    25   12   13 ar   
    26   12   82 1    
    27   13   14 ar   
    28   13   15 1    
    29   14   83 1    
    30   15   16 1    
    31   15   84 1    
    32   15   85 1    
    33   16   17 1    
    34   17   18 1    
    35   17   86 1    
    36   17   87 1    
    37   18   19 1    
    38   18   37 1    
    39   18   88 1    
    40   19   20 am   BACKBONE|DICT|INTERRES
    41   19   89 1    
    42   20   21 2    
    43   20   22 1    
    44   22   23 1    
    45   22   24 1    
    46   22   90 1    
    47   23   91 1    
    48   23   92 1    
    49   23   93 1    
    50   24   25 am   BACKBONE|DICT|INTERRES
    51   24   94 1    
    52   25   26 2    
    53   25   27 1    
    54   27   28 1    
    55   27   29 1    
    56   27   95 1    
    57   28   96 1    
    58   28   97 1    
    59   28   98 1    
    60   29   30 am   BACKBONE|DICT|INTERRES
    61   29   99 1    
    62   30   31 2    
    63   30   32 1    
    64   32   33 1    
    65   32   34 1    
    66   32  100 1    
    67   33  101 1    
    68   33  102 1    
    69   33  103 1    
    70   34   35 am   BACKBONE|DICT|INTERRES
    71   34  104 1    
    72   35   36 2    
    73   37   38 2    
    74   37   39 am   BACKBONE|DICT|INTERRES
    75   39   40 1    
    76   39  105 1    
    77   40   41 1    
    78   40   42 1    
    79   40  106 1    
    80   41  107 1    
    81   41  108 1    
    82   41  109 1    
    83   42   43 2    
    84   42   44 am   BACKBONE|DICT|INTERRES
    85   44   45 1    
    86   44  110 1    
    87   45   46 1    
    88   45   47 1    
    89   45  111 1    
    90   46  112 1    
    91   46  113 1    
    92   46  114 1    
    93   47   48 2    
    94   47   49 am   BACKBONE|DICT|INTERRES
    95   49   50 1    
    96   49  115 1    
    97   50   51 1    
    98   50   52 1    
    99   50  116 1    
   100   51  117 1    
   101   51  118 1    
   102   51  119 1    
   103   52   53 2    
   104   52   54 am   BACKBONE|DICT|INTERRES
   105   54   55 1    
   106   54  120 1    
   107   55   56 1    
   108   55   57 1    
   109   55  121 1    
   110   56  122 1    
   111   56  123 1    
   112   56  124 1    
   113   57   58 2    
   114   57   59 am   BACKBONE|DICT|INTERRES
   115   59   60 1    
   116   59  125 1    
   117   60   61 1    
   118   60   62 1    
   119   60  126 1    
   120   61  127 1    
   121   61  128 1    
   122   61  129 1    
   123   62   63 2    
   124   62   64 am   BACKBONE|DICT|INTERRES
   125   64   65 1    
   126   64  130 1    
   127   65   66 1    
   128   65   69 1    
   129   65  131 1    
   130   66   67 am   BACKBONE|DICT|INTERRES
   131   66   68 2    
   132   67  132 1    
   133   67  133 1    
   134   69   70 1    
   135   69  134 1    
   136   69  135 1    
   137   70   71 1    
   138   71  136 1    
   139   71  137 1    
@<TRIPOS>SUBSTRUCTURE
     1 UNK         1 GROUP             0       ****    0 ROOT    
