@<TRIPOS>MOLECULE
3R137
137   139    1
SMALL
USER_CHARGES


@<TRIPOS>ATOM
      1 CA         24.4058   -5.7697   -5.3620 C.3       0 UNK        -0.2020 
      2 C          24.9432   -5.2505   -4.0375 C.2       0 UNK         0.4855 
      3 O          24.1916   -4.6709   -3.2531 O.2       0 UNK        -0.5197 
      4 N          26.2449   -5.4484   -3.7933 N.am      1 UNK        -0.4892 
      5 CA         26.9872   -5.0321   -2.5962 C.3       1 UNK         0.0835 
      6 C6         28.4569   -5.5179   -2.6829 C.3       12 UNK        -0.0855 
      7 S7         29.2211   -5.9405   -1.0774 S.3       12 UNK        -0.2931 
      8 C8         29.5526   -4.3290   -0.2730 C.3       12 UNK         0.0378 
      9 C9         30.3931   -3.3165   -1.0556 C.ar      12 UNK        -0.0802 
     10 C10        31.1726   -3.6617   -2.1665 C.ar      12 UNK        -0.0944 
     11 C11        31.8604   -2.6837   -2.8899 C.ar      12 UNK        -0.0787 
     12 C12        31.8355   -1.3568   -2.4524 C.ar      12 UNK        -0.0862 
     13 C13        31.0888   -0.9994   -1.3259 C.ar      12 UNK        -0.0733 
     14 C14        30.3699   -1.9823   -0.6388 C.ar      12 UNK        -0.0832 
     15 C15        31.0267    0.4494   -0.8566 C.3       12 UNK         0.0240 
     16 S16        30.4084    1.6018   -2.1292 S.3       12 UNK        -0.2522 
     17 C17        28.8492    0.8264   -2.6814 C.3       12 UNK        -0.0967 
     18 CA         28.7359    0.8532   -4.2286 C.3       5 UNK         0.0660 
     19 N          28.1050   -0.3527   -4.7654 N.am      5 UNK        -0.4015 
     20 C          28.1333   -0.7129   -6.0562 C.2       4 UNK         0.4946 
     21 O          28.8438   -0.1683   -6.9003 O.2       4 UNK        -0.5353 
     22 CA         27.1885   -1.8496   -6.4866 C.3       4 UNK         0.0277 
     23 CB         27.9239   -3.1996   -6.5150 C.3       4 UNK        -0.1981 
     24 N          26.0046   -1.9427   -5.6236 N.am      4 UNK        -0.4209 
     25 C          24.9613   -1.1005   -5.6862 C.2       3 UNK         0.4942 
     26 O          24.8562   -0.2145   -6.5305 O.2       3 UNK        -0.5208 
     27 CA         23.8701   -1.2218   -4.6078 C.3       3 UNK         0.0250 
     28 CB         22.7291   -2.1360   -5.0786 C.3       3 UNK        -0.1990 
     29 N          24.3896   -1.6829   -3.3186 N.am      3 UNK        -0.4232 
     30 C          25.1758   -0.9377   -2.5259 C.2       2 UNK         0.4993 
     31 O          25.5003    0.2208   -2.7878 O.2       2 UNK        -0.5286 
     32 CA         25.7624   -1.6168   -1.2733 C.3       2 UNK         0.0209 
     33 CB         24.8140   -1.4547   -0.0758 C.3       2 UNK        -0.1931 
     34 N          26.0693   -3.0388   -1.4702 N.am      2 UNK        -0.4546 
     35 C          26.9036   -3.5022   -2.4112 C.2       1 UNK         0.5154 
     36 O          27.5297   -2.7633   -3.1723 O.2       1 UNK        -0.5181 
     37 C          28.0110    2.1228   -4.7234 C.2       5 UNK         0.5014 
     38 O          28.6716    3.0689   -5.1539 O.2       5 UNK        -0.5248 
     39 N          26.6686    2.1150   -4.6596 N.am      6 UNK        -0.4434 
     40 CA         25.7977    3.1918   -5.1409 C.3       6 UNK         0.0363 
     41 CB         24.3456    2.9231   -4.7151 C.3       6 UNK        -0.1936 
     42 C          25.9002    3.3973   -6.6614 C.2       6 UNK         0.5081 
     43 O          26.1359    4.5208   -7.1085 O.2       6 UNK        -0.5248 
     44 N          25.7848    2.3080   -7.4336 N.am      7 UNK        -0.4718 
     45 CA         26.0621    2.2642   -8.8716 C.3       7 UNK         0.0273 
     46 CB         25.2913    1.0902   -9.5027 C.3       7 UNK        -0.1935 
     47 C          27.5800    2.1648   -9.1053 C.2       7 UNK         0.5018 
     48 O          28.0629    1.1524   -9.6157 O.2       7 UNK        -0.5186 
     49 N          28.2958    3.2238   -8.6995 N.am      8 UNK        -0.4240 
     50 CA         29.7514    3.3224   -8.5339 C.3       8 UNK         0.0235 
     51 CB         30.1063    4.7602   -8.1221 C.3       8 UNK        -0.2000 
     52 C          30.6230    2.8772   -9.7204 C.2       8 UNK         0.4941 
     53 O          31.7912    2.5587   -9.5069 O.2       8 UNK        -0.5273 
     54 N          30.0568    2.8185  -10.9328 N.am      9 UNK        -0.4262 
     55 CA         30.6752    2.2128  -12.1145 C.3       9 UNK         0.0264 
     56 CB         29.7615    2.4357  -13.3306 C.3       9 UNK        -0.1955 
     57 C          30.9979    0.7119  -11.9498 C.2       9 UNK         0.5031 
     58 O          31.9034    0.2264  -12.6295 O.2       9 UNK        -0.5390 
     59 N          30.2709    0.0078  -11.0670 N.am      10 UNK        -0.4204 
     60 CA         30.5234   -1.3891  -10.7155 C.3       10 UNK         0.0237 
     61 CB         29.2692   -2.0056  -10.0715 C.3       10 UNK        -0.1985 
     62 C          31.7656   -1.5384   -9.8196 C.2       10 UNK         0.4970 
     63 O          32.7499   -2.1357  -10.2578 O.2       10 UNK        -0.4914 
     64 N          31.6978   -1.0164   -8.5866 N.am      11 UNK        -0.4285 
     65 CA         32.7804   -1.1244   -7.5909 C.3       11 UNK         0.1007 
     66 C          33.9853   -0.1650   -7.8056 C.2       11 UNK         0.5703 
     67 N          33.8817    0.8971   -8.5914 N.am      11 UNK        -0.7361 
     68 O          35.0571   -0.4051   -7.2542 O.2       11 UNK        -0.4986 
     69 C69        32.2314   -1.0502   -6.1404 C.3       12 UNK        -0.0947 
     70 S70        31.5545   -2.6646   -5.6241 S.3       12 UNK        -0.2240 
     71 C71        32.5833   -3.0627   -4.1721 C.3       12 UNK         0.0194 
     72 H72        24.9887   -6.6153   -5.7267 H         1 UNK         0.0906 
     73 H73        23.3732   -6.0992   -5.2492 H         1 UNK         0.0906 
     74 H74        24.4342   -4.9841   -6.1165 H         1 UNK         0.0906 
     75 H75        26.7983   -5.9178   -4.4960 H         1 UNK         0.3140 
     76 H76        26.5074   -5.5165   -1.7431 H         1 UNK         0.1085 
     77 H77        28.4974   -6.4479   -3.2526 H         1 UNK         0.0836 
     78 H78        29.0778   -4.8290   -3.2554 H         1 UNK         0.0836 
     79 H79        30.0592   -4.5271    0.6724 H         1 UNK         0.0731 
     80 H80        28.5947   -3.8787   -0.0101 H         1 UNK         0.0731 
     81 H81        31.2194   -4.6874   -2.5020 H         1 UNK         0.1312 
     82 H82        32.3669   -0.5960   -3.0073 H         1 UNK         0.1406 
     83 H83        29.7773   -1.7054    0.2230 H         1 UNK         0.1631 
     84 H84        32.0254    0.7654   -0.5527 H         1 UNK         0.0717 
     85 H85        30.3944    0.5443    0.0275 H         1 UNK         0.0717 
     86 H86        28.8131   -0.2031   -2.3261 H         1 UNK         0.0934 
     87 H87        28.0083    1.3229   -2.1925 H         1 UNK         0.0934 
     88 H88        29.7433    0.8729   -4.6506 H         1 UNK         0.0739 
     89 H89        27.5923   -0.9372   -4.1158 H         1 UNK         0.3093 
     90 H90        26.8572   -1.6272   -7.5036 H         1 UNK         0.0818 
     91 H91        28.3180   -3.4722   -5.5361 H         1 UNK         0.0819 
     92 H92        27.2697   -4.0030   -6.8530 H         1 UNK         0.0819 
     93 H93        28.7721   -3.1617   -7.1994 H         1 UNK         0.0819 
     94 H94        26.0629   -2.5928   -4.8517 H         1 UNK         0.3041 
     95 H95        23.4495   -0.2257   -4.4567 H         1 UNK         0.0784 
     96 H96        22.2915   -1.7633   -6.0059 H         1 UNK         0.0793 
     97 H97        23.0707   -3.1520   -5.2681 H         1 UNK         0.0793 
     98 H98        21.9289   -2.1842   -4.3399 H         1 UNK         0.0793 
     99 H99        24.2018   -2.6485   -3.0632 H         1 UNK         0.3024 
    100 H100       26.6999   -1.1070   -1.0402 H         1 UNK         0.1171 
    101 H101       25.2592   -1.8461    0.8392 H         1 UNK         0.0786 
    102 H102       24.5864   -0.4024    0.1013 H         1 UNK         0.0786 
    103 H103       23.8667   -1.9708   -0.2373 H         1 UNK         0.0786 
    104 H104       25.5402   -3.6991   -0.9180 H         1 UNK         0.2977 
    105 H105       26.2114    1.3278   -4.2066 H         1 UNK         0.3127 
    106 H106       26.1246    4.1156   -4.6591 H         1 UNK         0.0770 
    107 H107       23.9466    2.0218   -5.1797 H         1 UNK         0.0814 
    108 H108       23.6972    3.7511   -5.0044 H         1 UNK         0.0814 
    109 H109       24.2628    2.8076   -3.6342 H         1 UNK         0.0814 
    110 H110       25.5712    1.4129   -6.9961 H         1 UNK         0.2983 
    111 H111       25.7093    3.1867   -9.3381 H         1 UNK         0.0947 
    112 H112       25.4404    1.0618  -10.5827 H         1 UNK         0.0806 
    113 H113       24.2196    1.1762   -9.3229 H         1 UNK         0.0806 
    114 H114       25.6205    0.1299   -9.1038 H         1 UNK         0.0806 
    115 H115       27.7614    3.9723   -8.2707 H         1 UNK         0.3000 
    116 H116       30.0058    2.6602   -7.7033 H         1 UNK         0.0850 
    117 H117       31.1788    4.8675   -7.9529 H         1 UNK         0.0810 
    118 H118       29.6064    5.0398   -7.1941 H         1 UNK         0.0810 
    119 H119       29.8218    5.4808   -8.8898 H         1 UNK         0.0810 
    120 H120       29.0856    3.0824  -11.0109 H         1 UNK         0.3040 
    121 H121       31.6198    2.7305  -12.2937 H         1 UNK         0.0766 
    122 H122       29.5941    3.4973  -13.5135 H         1 UNK         0.0812 
    123 H123       28.7898    1.9583  -13.1975 H         1 UNK         0.0812 
    124 H124       30.2078    2.0196  -14.2350 H         1 UNK         0.0812 
    125 H125       29.5267    0.4796  -10.5535 H         1 UNK         0.3205 
    126 H126       30.7182   -1.9415  -11.6375 H         1 UNK         0.0754 
    127 H127       29.4502   -3.0376   -9.7680 H         1 UNK         0.0769 
    128 H128       28.4330   -2.0145  -10.7707 H         1 UNK         0.0769 
    129 H129       28.9505   -1.4540   -9.1880 H         1 UNK         0.0769 
    130 H130       30.8515   -0.5513   -8.2850 H         1 UNK         0.2981 
    131 H131       33.2228   -2.1156   -7.7125 H         1 UNK         0.0541 
    132 H132       32.9965    1.1873   -8.9957 H         1 UNK         0.3459 
    133 H133       34.6889    1.4863   -8.7133 H         1 UNK         0.3459 
    134 H134       33.0064   -0.7509   -5.4335 H         1 UNK         0.0612 
    135 H135       31.4527   -0.2913   -6.0561 H         1 UNK         0.0612 
    136 H136       33.5541   -2.5688   -4.2265 H         1 UNK         0.0624 
    137 H137       32.7920   -4.1335   -4.1831 H         1 UNK         0.0624 
@<TRIPOS>BOND
     1    1    2 1    
     2    1   72 1    
     3    1   73 1    
     4    1   74 1    
     5    2    3 2    
     6    2    4 am   BACKBONE|DICT|INTERRES
     7    4    5 1    
     8    4   75 1    
     9    5    6 1    
    10    5   35 1    
    11    5   76 1    
    12    6    7 1    
    13    6   77 1    
    14    6   78 1    
    15    7    8 1    
    16    8    9 1    
    17    8   79 1    
    18    8   80 1    
    19    9   10 ar   
    20    9   14 ar   
    21   10   11 ar   
    22   10   81 1    
    23   11   12 ar   
    24   11   71 1    
    25   12   13 ar   
    26   12   82 1    
    27   13   14 ar   
    28   13   15 1    
    29   14   83 1    
    30   15   16 1    
    31   15   84 1    
    32   15   85 1    
    33   16   17 1    
    34   17   18 1    
    35   17   86 1    
    36   17   87 1    
    37   18   19 1    
    38   18   37 1    
    39   18   88 1    
    40   19   20 am   BACKBONE|DICT|INTERRES
    41   19   89 1    
    42   20   21 2    
    43   20   22 1    
    44   22   23 1    
    45   22   24 1    
    46   22   90 1    
    47   23   91 1    
    48   23   92 1    
    49   23   93 1    
    50   24   25 am   BACKBONE|DICT|INTERRES
    51   24   94 1    
    52   25   26 2    
    53   25   27 1    
    54   27   28 1    
    55   27   29 1    
    56   27   95 1    
    57   28   96 1    
    58   28   97 1    
    59   28   98 1    
    60   29   30 am   BACKBONE|DICT|INTERRES
    61   29   99 1    
    62   30   31 2    
    63   30   32 1    
    64   32   33 1    
    65   32   34 1    
    66   32  100 1    
    67   33  101 1    
    68   33  102 1    
    69   33  103 1    
    70   34   35 am   BACKBONE|DICT|INTERRES
    71   34  104 1    
    72   35   36 2    
    73   37   38 2    
    74   37   39 am   BACKBONE|DICT|INTERRES
    75   39   40 1    
    76   39  105 1    
    77   40   41 1    
    78   40   42 1    
    79   40  106 1    
    80   41  107 1    
    81   41  108 1    
    82   41  109 1    
    83   42   43 2    
    84   42   44 am   BACKBONE|DICT|INTERRES
    85   44   45 1    
    86   44  110 1    
    87   45   46 1    
    88   45   47 1    
    89   45  111 1    
    90   46  112 1    
    91   46  113 1    
    92   46  114 1    
    93   47   48 2    
    94   47   49 am   BACKBONE|DICT|INTERRES
    95   49   50 1    
    96   49  115 1    
    97   50   51 1    
    98   50   52 1    
    99   50  116 1    
   100   51  117 1    
   101   51  118 1    
   102   51  119 1    
   103   52   53 2    
   104   52   54 am   BACKBONE|DICT|INTERRES
   105   54   55 1    
   106   54  120 1    
   107   55   56 1    
   108   55   57 1    
   109   55  121 1    
   110   56  122 1    
   111   56  123 1    
   112   56  124 1    
   113   57   58 2    
   114   57   59 am   BACKBONE|DICT|INTERRES
   115   59   60 1    
   116   59  125 1    
   117   60   61 1    
   118   60   62 1    
   119   60  126 1    
   120   61  127 1    
   121   61  128 1    
   122   61  129 1    
   123   62   63 2    
   124   62   64 am   BACKBONE|DICT|INTERRES
   125   64   65 1    
   126   64  130 1    
   127   65   66 1    
   128   65   69 1    
   129   65  131 1    
   130   66   67 am   BACKBONE|DICT|INTERRES
   131   66   68 2    
   132   67  132 1    
   133   67  133 1    
   134   69   70 1    
   135   69  134 1    
   136   69  135 1    
   137   70   71 1    
   138   71  136 1    
   139   71  137 1    
@<TRIPOS>SUBSTRUCTURE
     1 UNK         1 GROUP             0       ****    0 ROOT    
