@<TRIPOS>MOLECULE
3R137
137   139    1
SMALL
USER_CHARGES


@<TRIPOS>ATOM
      1 CA         27.3588    0.2806    2.9275 C.3       0 UNK        -0.2020 
      2 C          27.1533   -0.3885    1.5764 C.2       0 UNK         0.4855 
      3 O          26.4401   -1.3891    1.4964 O.2       0 UNK        -0.5197 
      4 N          27.7751    0.1591    0.5227 N.am      1 UNK        -0.4892 
      5 CA         27.7079   -0.3003   -0.8727 C.3       1 UNK         0.0835 
      6 C6         28.3641   -1.6941   -1.1009 C.3       12 UNK        -0.0855 
      7 S7         30.1304   -1.6759   -0.6378 S.3       12 UNK        -0.2931 
      8 C8         30.6664   -3.3521   -1.1067 C.3       12 UNK         0.0378 
      9 C9         30.7276   -3.5303   -2.6169 C.ar      12 UNK        -0.0802 
     10 C10        31.6988   -2.8575   -3.3652 C.ar      12 UNK        -0.0944 
     11 C11        31.7588   -2.9938   -4.7558 C.ar      12 UNK        -0.0787 
     12 C12        30.8259   -3.8276   -5.3914 C.ar      12 UNK        -0.0862 
     13 C13        29.8604   -4.5228   -4.6545 C.ar      12 UNK        -0.0733 
     14 C14        29.8196   -4.3711   -3.2656 C.ar      12 UNK        -0.0832 
     15 C15        28.8766   -5.4505   -5.3640 C.3       12 UNK         0.0240 
     16 S16        27.1273   -5.1145   -4.9587 S.3       12 UNK        -0.2522 
     17 C17        26.9360   -3.3884   -5.5003 C.3       12 UNK        -0.0967 
     18 CA         26.2538   -3.2673   -6.8955 C.3       5 UNK         0.0660 
     19 N          24.8612   -2.8407   -6.7676 N.am      5 UNK        -0.4015 
     20 C          23.8780   -3.1621   -7.6190 C.2       4 UNK         0.4946 
     21 O          24.0321   -3.9118   -8.5848 O.2       4 UNK        -0.5353 
     22 CA         22.4761   -2.5789   -7.3507 C.3       4 UNK         0.0277 
     23 CB         21.5299   -3.6774   -6.8365 C.3       4 UNK        -0.1981 
     24 N          22.4826   -1.4749   -6.3886 N.am      4 UNK        -0.4209 
     25 C          22.8182   -0.2089   -6.6745 C.2       3 UNK         0.4942 
     26 O          23.0614    0.1940   -7.8115 O.2       3 UNK        -0.5208 
     27 CA         22.9066    0.7732   -5.4893 C.3       3 UNK         0.0250 
     28 CB         21.6287    1.6228   -5.3977 C.3       3 UNK        -0.1990 
     29 N          23.1501    0.1210   -4.1950 N.am      3 UNK        -0.4232 
     30 C          24.2810   -0.5229   -3.8753 C.2       2 UNK         0.4993 
     31 O          25.2361   -0.6426   -4.6443 O.2       2 UNK        -0.5286 
     32 CA         24.3173   -1.2216   -2.5069 C.3       2 UNK         0.0209 
     33 CB         23.8178   -2.6710   -2.6359 C.3       2 UNK        -0.1931 
     34 N          25.6674   -1.2313   -1.9381 N.am      2 UNK        -0.4546 
     35 C          26.2678   -0.1524   -1.4166 C.2       1 UNK         0.5154 
     36 O          25.7213    0.9515   -1.3439 O.2       1 UNK        -0.5181 
     37 C          27.0181   -2.2697   -7.7836 C.2       5 UNK         0.5014 
     38 O          26.6193   -1.1093   -7.9158 O.2       5 UNK        -0.5248 
     39 N          28.1845   -2.7096   -8.2794 N.am      6 UNK        -0.4434 
     40 CA         29.1843   -1.8668   -8.9507 C.3       6 UNK         0.0363 
     41 CB         30.2843   -2.7544   -9.5514 C.3       6 UNK        -0.1936 
     42 C          29.7817   -0.7632   -8.0515 C.2       6 UNK         0.5081 
     43 O          30.4168    0.1566   -8.5666 O.2       6 UNK        -0.5248 
     44 N          29.5058   -0.8226   -6.7396 N.am      7 UNK        -0.4718 
     45 CA         29.6991    0.2377   -5.7469 C.3       7 UNK         0.0273 
     46 CB         29.1530   -0.2352   -4.3924 C.3       7 UNK        -0.1935 
     47 C          29.0434    1.5768   -6.1274 C.2       7 UNK         0.5018 
     48 O          29.5694    2.6211   -5.7443 O.2       7 UNK        -0.5186 
     49 N          27.9723    1.5400   -6.9366 N.am      8 UNK        -0.4240 
     50 CA         27.3602    2.7140   -7.5697 C.3       8 UNK         0.0235 
     51 CB         26.1099    2.2698   -8.3444 C.3       8 UNK        -0.2000 
     52 C          28.3172    3.5004   -8.4926 C.2       8 UNK         0.4941 
     53 O          28.1118    4.6994   -8.6831 O.2       8 UNK        -0.5273 
     54 N          29.3520    2.8288   -9.0174 N.am      9 UNK        -0.4262 
     55 CA         30.4640    3.4102   -9.7714 C.3       9 UNK         0.0264 
     56 CB         30.4921    2.7702  -11.1718 C.3       9 UNK        -0.1955 
     57 C          31.8022    3.2056   -9.0308 C.2       9 UNK         0.5031 
     58 O          32.8568    3.2661   -9.6659 O.2       9 UNK        -0.5390 
     59 N          31.7474    2.9282   -7.7163 N.am      10 UNK        -0.4204 
     60 CA         32.8651    2.6334   -6.8075 C.3       10 UNK         0.0237 
     61 CB         33.6762    3.9180   -6.5355 C.3       10 UNK        -0.1985 
     62 C          33.7603    1.4550   -7.2526 C.2       10 UNK         0.4970 
     63 O          34.9431    1.4360   -6.9076 O.2       10 UNK        -0.4914 
     64 N          33.1979    0.5109   -8.0230 N.am      11 UNK        -0.4285 
     65 CA         33.9144   -0.5650   -8.7302 C.3       11 UNK         0.1007 
     66 C          34.9465   -0.0604   -9.7905 C.2       11 UNK         0.5703 
     67 N          34.8529    1.1726  -10.2775 N.am      11 UNK        -0.7361 
     68 O          35.8260   -0.8060  -10.2159 O.2       11 UNK        -0.4986 
     69 C69        34.4781   -1.6536   -7.7650 C.3       12 UNK        -0.0947 
     70 S70        33.1841   -2.8057   -7.2005 S.3       12 UNK        -0.2240 
     71 C71        32.8246   -2.1992   -5.5195 C.3       12 UNK         0.0194 
     72 H72        26.4020    0.6089    3.3329 H         1 UNK         0.0906 
     73 H73        28.0139    1.1490    2.8589 H         1 UNK         0.0906 
     74 H74        27.8032   -0.4237    3.6304 H         1 UNK         0.0906 
     75 H75        28.3268    0.9938    0.6647 H         1 UNK         0.3140 
     76 H76        28.2902    0.4227   -1.4454 H         1 UNK         0.1085 
     77 H77        28.2967   -1.9856   -2.1501 H         1 UNK         0.0836 
     78 H78        27.8572   -2.4705   -0.5254 H         1 UNK         0.0836 
     79 H79        30.0011   -4.0860   -0.6489 H         1 UNK         0.0731 
     80 H80        31.6569   -3.5346   -0.6874 H         1 UNK         0.0731 
     81 H81        32.4003   -2.2080   -2.8591 H         1 UNK         0.1312 
     82 H82        30.8473   -3.9468   -6.4639 H         1 UNK         0.1406 
     83 H83        29.0734   -4.9047   -2.6925 H         1 UNK         0.1631 
     84 H84        29.1063   -6.4795   -5.0844 H         1 UNK         0.0717 
     85 H85        29.0000   -5.3950   -6.4463 H         1 UNK         0.0717 
     86 H86        26.3587   -2.8805   -4.7298 H         1 UNK         0.0934 
     87 H87        27.9105   -2.9030   -5.4573 H         1 UNK         0.0934 
     88 H88        26.2832   -4.2340   -7.4036 H         1 UNK         0.0739 
     89 H89        24.6930   -2.1256   -6.0705 H         1 UNK         0.3093 
     90 H90        22.0881   -2.2124   -8.3037 H         1 UNK         0.0818 
     91 H91        21.8679   -4.0907   -5.8853 H         1 UNK         0.0819 
     92 H92        20.5175   -3.2972   -6.6984 H         1 UNK         0.0819 
     93 H93        21.4684   -4.5036   -7.5464 H         1 UNK         0.0819 
     94 H94        22.2660   -1.7055   -5.4304 H         1 UNK         0.3041 
     95 H95        23.7476    1.4414   -5.6880 H         1 UNK         0.0784 
     96 H96        21.4387    2.1438   -6.3374 H         1 UNK         0.0793 
     97 H97        20.7511    1.0124   -5.1808 H         1 UNK         0.0793 
     98 H98        21.7116    2.3829   -4.6205 H         1 UNK         0.0793 
     99 H99        22.4024    0.1700   -3.5170 H         1 UNK         0.3024 
    100 H100       23.6596   -0.6840   -1.8194 H         1 UNK         0.1171 
    101 H101       23.8131   -3.1747   -1.6689 H         1 UNK         0.0786 
    102 H102       24.4371   -3.2588   -3.3145 H         1 UNK         0.0786 
    103 H103       22.7964   -2.7031   -3.0173 H         1 UNK         0.0786 
    104 H104       26.1693   -2.1053   -1.9732 H         1 UNK         0.2977 
    105 H105       28.4353   -3.6784   -8.1438 H         1 UNK         0.3127 
    106 H106       28.6820   -1.3529   -9.7731 H         1 UNK         0.0770 
    107 H107       30.7762   -3.3623   -8.7936 H         1 UNK         0.0814 
    108 H108       31.0523   -2.1527  -10.0388 H         1 UNK         0.0814 
    109 H109       29.8791   -3.4276  -10.3070 H         1 UNK         0.0814 
    110 H110       29.0004   -1.6322   -6.4193 H         1 UNK         0.2983 
    111 H111       30.7717    0.4105   -5.6527 H         1 UNK         0.0947 
    112 H112       28.0724   -0.3847   -4.4202 H         1 UNK         0.0806 
    113 H113       29.3634    0.5003   -3.6154 H         1 UNK         0.0806 
    114 H114       29.6121   -1.1707   -4.0801 H         1 UNK         0.0806 
    115 H115       27.5883    0.6362   -7.1959 H         1 UNK         0.3000 
    116 H116       27.0486    3.3915   -6.7721 H         1 UNK         0.0850 
    117 H117       25.6042    3.1232   -8.7980 H         1 UNK         0.0810 
    118 H118       25.3915    1.7781   -7.6882 H         1 UNK         0.0810 
    119 H119       26.3587    1.5715   -9.1447 H         1 UNK         0.0810 
    120 H120       29.4544    1.8395   -8.8069 H         1 UNK         0.3040 
    121 H121       30.3286    4.4874   -9.8857 H         1 UNK         0.0766 
    122 H122       29.5444    2.9126  -11.6911 H         1 UNK         0.0812 
    123 H123       30.6880    1.6983  -11.1182 H         1 UNK         0.0812 
    124 H124       31.2699    3.2150  -11.7939 H         1 UNK         0.0812 
    125 H125       30.8343    2.9199   -7.2727 H         1 UNK         0.3205 
    126 H126       32.4152    2.3246   -5.8633 H         1 UNK         0.0754 
    127 H127       34.4229    3.7569   -5.7569 H         1 UNK         0.0769 
    128 H128       33.0315    4.7295   -6.1978 H         1 UNK         0.0769 
    129 H129       34.2033    4.2576   -7.4279 H         1 UNK         0.0769 
    130 H130       32.2090    0.5839   -8.2478 H         1 UNK         0.2981 
    131 H131       33.1546   -1.0441   -9.3478 H         1 UNK         0.0541 
    132 H132       34.1298    1.8134   -9.9634 H         1 UNK         0.3459 
    133 H133       35.5181    1.4753  -10.9703 H         1 UNK         0.3459 
    134 H134       35.2228   -2.2773   -8.2611 H         1 UNK         0.0612 
    135 H135       34.9911   -1.2110   -6.9108 H         1 UNK         0.0612 
    136 H136       32.5079   -1.1590   -5.5849 H         1 UNK         0.0624 
    137 H137       33.7558   -2.2078   -4.9511 H         1 UNK         0.0624 
@<TRIPOS>BOND
     1    1    2 1    
     2    1   72 1    
     3    1   73 1    
     4    1   74 1    
     5    2    3 2    
     6    2    4 am   BACKBONE|DICT|INTERRES
     7    4    5 1    
     8    4   75 1    
     9    5    6 1    
    10    5   35 1    
    11    5   76 1    
    12    6    7 1    
    13    6   77 1    
    14    6   78 1    
    15    7    8 1    
    16    8    9 1    
    17    8   79 1    
    18    8   80 1    
    19    9   10 ar   
    20    9   14 ar   
    21   10   11 ar   
    22   10   81 1    
    23   11   12 ar   
    24   11   71 1    
    25   12   13 ar   
    26   12   82 1    
    27   13   14 ar   
    28   13   15 1    
    29   14   83 1    
    30   15   16 1    
    31   15   84 1    
    32   15   85 1    
    33   16   17 1    
    34   17   18 1    
    35   17   86 1    
    36   17   87 1    
    37   18   19 1    
    38   18   37 1    
    39   18   88 1    
    40   19   20 am   BACKBONE|DICT|INTERRES
    41   19   89 1    
    42   20   21 2    
    43   20   22 1    
    44   22   23 1    
    45   22   24 1    
    46   22   90 1    
    47   23   91 1    
    48   23   92 1    
    49   23   93 1    
    50   24   25 am   BACKBONE|DICT|INTERRES
    51   24   94 1    
    52   25   26 2    
    53   25   27 1    
    54   27   28 1    
    55   27   29 1    
    56   27   95 1    
    57   28   96 1    
    58   28   97 1    
    59   28   98 1    
    60   29   30 am   BACKBONE|DICT|INTERRES
    61   29   99 1    
    62   30   31 2    
    63   30   32 1    
    64   32   33 1    
    65   32   34 1    
    66   32  100 1    
    67   33  101 1    
    68   33  102 1    
    69   33  103 1    
    70   34   35 am   BACKBONE|DICT|INTERRES
    71   34  104 1    
    72   35   36 2    
    73   37   38 2    
    74   37   39 am   BACKBONE|DICT|INTERRES
    75   39   40 1    
    76   39  105 1    
    77   40   41 1    
    78   40   42 1    
    79   40  106 1    
    80   41  107 1    
    81   41  108 1    
    82   41  109 1    
    83   42   43 2    
    84   42   44 am   BACKBONE|DICT|INTERRES
    85   44   45 1    
    86   44  110 1    
    87   45   46 1    
    88   45   47 1    
    89   45  111 1    
    90   46  112 1    
    91   46  113 1    
    92   46  114 1    
    93   47   48 2    
    94   47   49 am   BACKBONE|DICT|INTERRES
    95   49   50 1    
    96   49  115 1    
    97   50   51 1    
    98   50   52 1    
    99   50  116 1    
   100   51  117 1    
   101   51  118 1    
   102   51  119 1    
   103   52   53 2    
   104   52   54 am   BACKBONE|DICT|INTERRES
   105   54   55 1    
   106   54  120 1    
   107   55   56 1    
   108   55   57 1    
   109   55  121 1    
   110   56  122 1    
   111   56  123 1    
   112   56  124 1    
   113   57   58 2    
   114   57   59 am   BACKBONE|DICT|INTERRES
   115   59   60 1    
   116   59  125 1    
   117   60   61 1    
   118   60   62 1    
   119   60  126 1    
   120   61  127 1    
   121   61  128 1    
   122   61  129 1    
   123   62   63 2    
   124   62   64 am   BACKBONE|DICT|INTERRES
   125   64   65 1    
   126   64  130 1    
   127   65   66 1    
   128   65   69 1    
   129   65  131 1    
   130   66   67 am   BACKBONE|DICT|INTERRES
   131   66   68 2    
   132   67  132 1    
   133   67  133 1    
   134   69   70 1    
   135   69  134 1    
   136   69  135 1    
   137   70   71 1    
   138   71  136 1    
   139   71  137 1    
@<TRIPOS>SUBSTRUCTURE
     1 UNK         1 GROUP             0       ****    0 ROOT    
