@<TRIPOS>MOLECULE
3R137
137   139    1
SMALL
USER_CHARGES


@<TRIPOS>ATOM
      1 CA         23.9502   -6.3581   -4.3079 C.3       0 UNK        -0.2020 
      2 C          24.8533   -5.3672   -3.5905 C.2       0 UNK         0.4855 
      3 O          25.1685   -4.3162   -4.1482 O.2       0 UNK        -0.5197 
      4 N          25.2685   -5.6873   -2.3564 N.am      1 UNK        -0.4892 
      5 CA         26.1164   -4.8505   -1.4953 C.3       1 UNK         0.0835 
      6 C6         27.5567   -4.7043   -2.0714 C.3       12 UNK        -0.0855 
      7 S7         28.8024   -4.4326   -0.7708 S.3       12 UNK        -0.2931 
      8 C8         30.3453   -4.5463   -1.7328 C.3       12 UNK         0.0378 
      9 C9         30.6181   -3.2872   -2.5458 C.ar      12 UNK        -0.0802 
     10 C10        30.7118   -3.3438   -3.9402 C.ar      12 UNK        -0.0944 
     11 C11        31.0243   -2.1967   -4.6775 C.ar      12 UNK        -0.0787 
     12 C12        31.2323   -0.9864   -4.0101 C.ar      12 UNK        -0.0862 
     13 C13        31.1152   -0.9090   -2.6185 C.ar      12 UNK        -0.0733 
     14 C14        30.8197   -2.0671   -1.8939 C.ar      12 UNK        -0.0832 
     15 C15        31.3099    0.4125   -1.8785 C.3       12 UNK         0.0240 
     16 S16        30.4430    1.8334   -2.6334 S.3       12 UNK        -0.2522 
     17 C17        28.7649    1.1780   -2.9277 C.3       12 UNK        -0.0967 
     18 CA         28.4532    1.1062   -4.4480 C.3       5 UNK         0.0660 
     19 N          27.6778   -0.0801   -4.8121 N.am      5 UNK        -0.4015 
     20 C          27.5981   -0.5887   -6.0504 C.2       4 UNK         0.4946 
     21 O          28.2451   -0.1637   -7.0087 O.2       4 UNK        -0.5353 
     22 CA         26.6166   -1.7553   -6.2701 C.3       4 UNK         0.0277 
     23 CB         27.3537   -3.0998   -6.1802 C.3       4 UNK        -0.1981 
     24 N          25.4897   -1.7601   -5.3320 N.am      4 UNK        -0.4209 
     25 C          24.5510   -0.8051   -5.2626 C.2       3 UNK         0.4942 
     26 O          24.5010    0.1573   -6.0263 O.2       3 UNK        -0.5208 
     27 CA         23.5527   -0.8908   -4.0968 C.3       3 UNK         0.0250 
     28 CB         22.4503   -1.9213   -4.3866 C.3       3 UNK        -0.1990 
     29 N          24.2019   -1.1993   -2.8190 N.am      3 UNK        -0.4232 
     30 C          25.1475   -0.4561   -2.2279 C.2       2 UNK         0.4993 
     31 O          25.5611    0.6061   -2.6929 O.2       2 UNK        -0.5286 
     32 CA         25.7946   -1.0074   -0.9438 C.3       2 UNK         0.0209 
     33 CB         24.9151   -0.7375    0.2925 C.3       2 UNK        -0.1931 
     34 N          26.1953   -2.4199   -1.0494 N.am      2 UNK        -0.4546 
     35 C          25.4181   -3.5064   -1.1664 C.2       1 UNK         0.5154 
     36 O          24.1879   -3.4708   -1.0690 O.2       1 UNK        -0.5181 
     37 C          27.7558    2.3822   -4.9498 C.2       5 UNK         0.5014 
     38 O          28.4002    3.2119   -5.5910 O.2       5 UNK        -0.5248 
     39 N          26.4440    2.4925   -4.6897 N.am      6 UNK        -0.4434 
     40 CA         25.5829    3.5844   -5.1549 C.3       6 UNK         0.0363 
     41 CB         24.1858    3.4367   -4.5317 C.3       6 UNK        -0.1936 
     42 C          25.4925    3.6683   -6.6895 C.2       6 UNK         0.5081 
     43 O          25.5215    4.7690   -7.2401 O.2       6 UNK        -0.5248 
     44 N          25.4225    2.5057   -7.3517 N.am      7 UNK        -0.4718 
     45 CA         25.4701    2.3660   -8.8099 C.3       7 UNK         0.0273 
     46 CB         24.9572    0.9678   -9.1917 C.3       7 UNK        -0.1935 
     47 C          26.8716    2.5942   -9.4085 C.2       7 UNK         0.5018 
     48 O          26.9683    2.8019  -10.6186 O.2       7 UNK        -0.5186 
     49 N          27.9162    2.5347   -8.5669 N.am      8 UNK        -0.4240 
     50 CA         29.3442    2.6248   -8.8901 C.3       8 UNK         0.0235 
     51 CB         29.7107    4.0488   -9.3580 C.3       8 UNK        -0.2000 
     52 C          29.7794    1.5298   -9.8807 C.2       8 UNK         0.4941 
     53 O          30.3504    1.8316  -10.9317 O.2       8 UNK        -0.5273 
     54 N          29.4827    0.2693   -9.5349 N.am      9 UNK        -0.4262 
     55 CA         29.6767   -0.9263  -10.3641 C.3       9 UNK         0.0264 
     56 CB         28.8104   -2.0620   -9.7909 C.3       9 UNK        -0.1955 
     57 C          31.1551   -1.3429  -10.5321 C.2       9 UNK         0.5031 
     58 O          31.5153   -2.4773  -10.2155 O.2       9 UNK        -0.5390 
     59 N          31.9814   -0.4130  -11.0295 N.am      10 UNK        -0.4204 
     60 CA         33.4088   -0.5351  -11.3631 C.3       10 UNK         0.0237 
     61 CB         33.6251   -1.5827  -12.4764 C.3       10 UNK        -0.1985 
     62 C          34.3516   -0.7631  -10.1620 C.2       10 UNK         0.4970 
     63 O          35.5329   -1.0414  -10.3758 O.2       10 UNK        -0.4914 
     64 N          33.8443   -0.6148   -8.9319 N.am      11 UNK        -0.4285 
     65 CA         34.6156   -0.7469   -7.6840 C.3       11 UNK         0.1007 
     66 C          35.5207    0.4762   -7.3531 C.2       11 UNK         0.5703 
     67 N          35.4047    1.6024   -8.0478 N.am      11 UNK        -0.7361 
     68 O          36.3531    0.3975   -6.4526 O.2       11 UNK        -0.4986 
     69 C69        33.7038   -1.1045   -6.4819 C.3       12 UNK        -0.0947 
     70 S70        32.8257   -2.6862   -6.7213 S.3       12 UNK        -0.2240 
     71 C71        31.1370   -2.2661   -6.1940 C.3       12 UNK         0.0194 
     72 H72        23.7597   -7.2471   -3.7071 H         1 UNK         0.0906 
     73 H73        22.9930   -5.8912   -4.5383 H         1 UNK         0.0906 
     74 H74        24.4103   -6.6724   -5.2443 H         1 UNK         0.0906 
     75 H75        24.9429   -6.5467   -1.9354 H         1 UNK         0.3140 
     76 H76        26.1795   -5.3872   -0.5471 H         1 UNK         0.1085 
     77 H77        27.6184   -3.9181   -2.8263 H         1 UNK         0.0836 
     78 H78        27.8368   -5.6240   -2.5880 H         1 UNK         0.0836 
     79 H79        30.3135   -5.4301   -2.3720 H         1 UNK         0.0731 
     80 H80        31.1755   -4.7014   -1.0423 H         1 UNK         0.0731 
     81 H81        30.5614   -4.2839   -4.4533 H         1 UNK         0.1312 
     82 H82        31.4737   -0.0970   -4.5738 H         1 UNK         0.1406 
     83 H83        30.7462   -2.0250   -0.8153 H         1 UNK         0.1631 
     84 H84        32.3764    0.6361   -1.8339 H         1 UNK         0.0717 
     85 H85        30.9710    0.3240   -0.8451 H         1 UNK         0.0717 
     86 H86        28.6850    0.1909   -2.4717 H         1 UNK         0.0934 
     87 H87        28.0453    1.7947   -2.3848 H         1 UNK         0.0934 
     88 H88        29.3953    1.0303   -4.9949 H         1 UNK         0.0739 
     89 H89        27.0666   -0.4529   -4.1010 H         1 UNK         0.3093 
     90 H90        26.2093   -1.6556   -7.2778 H         1 UNK         0.0818 
     91 H91        28.1584   -3.1562   -6.9103 H         1 UNK         0.0819 
     92 H92        27.7935   -3.2553   -5.1947 H         1 UNK         0.0819 
     93 H93        26.6826   -3.9343   -6.3837 H         1 UNK         0.0819 
     94 H94        25.4078   -2.5745   -4.7241 H         1 UNK         0.3041 
     95 H95        23.0830    0.0896   -3.9951 H         1 UNK         0.0784 
     96 H96        21.9444   -1.6966   -5.3267 H         1 UNK         0.0793 
     97 H97        22.8492   -2.9330   -4.4645 H         1 UNK         0.0793 
     98 H98        21.6923   -1.9207   -3.6031 H         1 UNK         0.0793 
     99 H99        23.9473   -2.0721   -2.3639 H         1 UNK         0.3024 
    100 H100       26.7219   -0.4492   -0.8031 H         1 UNK         0.1171 
    101 H101       25.3942   -1.0935    1.2045 H         1 UNK         0.0786 
    102 H102       24.7403    0.3323    0.4148 H         1 UNK         0.0786 
    103 H103       23.9378   -1.2148    0.2187 H         1 UNK         0.0786 
    104 H104       27.1930   -2.5791   -1.1216 H         1 UNK         0.2977 
    105 H105       26.0043    1.7775   -4.1134 H         1 UNK         0.3127 
    106 H106       26.0187    4.5201   -4.7986 H         1 UNK         0.0770 
    107 H107       23.7010    2.5104   -4.8414 H         1 UNK         0.0814 
    108 H108       23.5366    4.2607   -4.8307 H         1 UNK         0.0814 
    109 H109       24.2346    3.4398   -3.4426 H         1 UNK         0.0814 
    110 H110       25.3020    1.6482   -6.8151 H         1 UNK         0.2983 
    111 H111       24.8019    3.1105   -9.2482 H         1 UNK         0.0947 
    112 H112       24.9264    0.8434  -10.2750 H         1 UNK         0.0806 
    113 H113       23.9477    0.7982   -8.8168 H         1 UNK         0.0806 
    114 H114       25.5997    0.1830   -8.7913 H         1 UNK         0.0806 
    115 H115       27.7124    2.3659   -7.5901 H         1 UNK         0.3000 
    116 H116       29.8823    2.4328   -7.9604 H         1 UNK         0.0850 
    117 H117       30.7865    4.1445   -9.5094 H         1 UNK         0.0810 
    118 H118       29.4196    4.7938   -8.6174 H         1 UNK         0.0810 
    119 H119       29.2258    4.3050  -10.3005 H         1 UNK         0.0810 
    120 H120       29.0283    0.1183   -8.6336 H         1 UNK         0.3040 
    121 H121       29.2997   -0.7006  -11.3638 H         1 UNK         0.0766 
    122 H122       27.7652   -1.7644   -9.7032 H         1 UNK         0.0812 
    123 H123       29.1601   -2.3603   -8.8033 H         1 UNK         0.0812 
    124 H124       28.8451   -2.9447  -10.4307 H         1 UNK         0.0812 
    125 H125       31.5620    0.5015  -11.2013 H         1 UNK         0.3205 
    126 H126       33.6935    0.4349  -11.7732 H         1 UNK         0.0754 
    127 H127       34.6535   -1.5654  -12.8396 H         1 UNK         0.0769 
    128 H128       32.9795   -1.3901  -13.3333 H         1 UNK         0.0769 
    129 H129       33.4234   -2.5949  -12.1247 H         1 UNK         0.0769 
    130 H130       32.8628   -0.4087   -8.8344 H         1 UNK         0.2981 
    131 H131       35.3048   -1.5832   -7.8174 H         1 UNK         0.0541 
    132 H132       34.7304    1.6797   -8.7913 H         1 UNK         0.3459 
    133 H133       36.0023    2.3825   -7.8243 H         1 UNK         0.3459 
    134 H134       34.2852   -1.1940   -5.5624 H         1 UNK         0.0612 
    135 H135       32.9859   -0.3011   -6.3148 H         1 UNK         0.0612 
    136 H136       30.8226   -1.3270   -6.6521 H         1 UNK         0.0624 
    137 H137       30.4632   -3.0317   -6.5780 H         1 UNK         0.0624 
@<TRIPOS>BOND
     1    1    2 1    
     2    1   72 1    
     3    1   73 1    
     4    1   74 1    
     5    2    3 2    
     6    2    4 am   BACKBONE|DICT|INTERRES
     7    4    5 1    
     8    4   75 1    
     9    5    6 1    
    10    5   35 1    
    11    5   76 1    
    12    6    7 1    
    13    6   77 1    
    14    6   78 1    
    15    7    8 1    
    16    8    9 1    
    17    8   79 1    
    18    8   80 1    
    19    9   10 ar   
    20    9   14 ar   
    21   10   11 ar   
    22   10   81 1    
    23   11   12 ar   
    24   11   71 1    
    25   12   13 ar   
    26   12   82 1    
    27   13   14 ar   
    28   13   15 1    
    29   14   83 1    
    30   15   16 1    
    31   15   84 1    
    32   15   85 1    
    33   16   17 1    
    34   17   18 1    
    35   17   86 1    
    36   17   87 1    
    37   18   19 1    
    38   18   37 1    
    39   18   88 1    
    40   19   20 am   BACKBONE|DICT|INTERRES
    41   19   89 1    
    42   20   21 2    
    43   20   22 1    
    44   22   23 1    
    45   22   24 1    
    46   22   90 1    
    47   23   91 1    
    48   23   92 1    
    49   23   93 1    
    50   24   25 am   BACKBONE|DICT|INTERRES
    51   24   94 1    
    52   25   26 2    
    53   25   27 1    
    54   27   28 1    
    55   27   29 1    
    56   27   95 1    
    57   28   96 1    
    58   28   97 1    
    59   28   98 1    
    60   29   30 am   BACKBONE|DICT|INTERRES
    61   29   99 1    
    62   30   31 2    
    63   30   32 1    
    64   32   33 1    
    65   32   34 1    
    66   32  100 1    
    67   33  101 1    
    68   33  102 1    
    69   33  103 1    
    70   34   35 am   BACKBONE|DICT|INTERRES
    71   34  104 1    
    72   35   36 2    
    73   37   38 2    
    74   37   39 am   BACKBONE|DICT|INTERRES
    75   39   40 1    
    76   39  105 1    
    77   40   41 1    
    78   40   42 1    
    79   40  106 1    
    80   41  107 1    
    81   41  108 1    
    82   41  109 1    
    83   42   43 2    
    84   42   44 am   BACKBONE|DICT|INTERRES
    85   44   45 1    
    86   44  110 1    
    87   45   46 1    
    88   45   47 1    
    89   45  111 1    
    90   46  112 1    
    91   46  113 1    
    92   46  114 1    
    93   47   48 2    
    94   47   49 am   BACKBONE|DICT|INTERRES
    95   49   50 1    
    96   49  115 1    
    97   50   51 1    
    98   50   52 1    
    99   50  116 1    
   100   51  117 1    
   101   51  118 1    
   102   51  119 1    
   103   52   53 2    
   104   52   54 am   BACKBONE|DICT|INTERRES
   105   54   55 1    
   106   54  120 1    
   107   55   56 1    
   108   55   57 1    
   109   55  121 1    
   110   56  122 1    
   111   56  123 1    
   112   56  124 1    
   113   57   58 2    
   114   57   59 am   BACKBONE|DICT|INTERRES
   115   59   60 1    
   116   59  125 1    
   117   60   61 1    
   118   60   62 1    
   119   60  126 1    
   120   61  127 1    
   121   61  128 1    
   122   61  129 1    
   123   62   63 2    
   124   62   64 am   BACKBONE|DICT|INTERRES
   125   64   65 1    
   126   64  130 1    
   127   65   66 1    
   128   65   69 1    
   129   65  131 1    
   130   66   67 am   BACKBONE|DICT|INTERRES
   131   66   68 2    
   132   67  132 1    
   133   67  133 1    
   134   69   70 1    
   135   69  134 1    
   136   69  135 1    
   137   70   71 1    
   138   71  136 1    
   139   71  137 1    
@<TRIPOS>SUBSTRUCTURE
     1 UNK         1 GROUP             0       ****    0 ROOT    
