@<TRIPOS>MOLECULE
3R137
137   139    1
SMALL
USER_CHARGES


@<TRIPOS>ATOM
      1 CA         25.2930   -6.8066   -0.8058 C.3       0 UNK        -0.2020 
      2 C          26.4673   -5.9171   -0.4253 C.2       0 UNK         0.4855 
      3 O          27.0724   -6.1174    0.6281 O.2       0 UNK        -0.5197 
      4 N          26.7923   -4.9362   -1.2718 N.am      1 UNK        -0.4892 
      5 CA         27.8571   -3.9568   -1.0725 C.3       1 UNK         0.0835 
      6 C6         29.2351   -4.5141   -1.5111 C.3       12 UNK        -0.0855 
      7 S7         30.6290   -3.5474   -0.8397 S.3       12 UNK        -0.2931 
      8 C8         31.7634   -3.4919   -2.2643 C.3       12 UNK         0.0378 
      9 C9         31.2645   -2.5748   -3.3727 C.ar      12 UNK        -0.0802 
     10 C10        31.2917   -1.1880   -3.1964 C.ar      12 UNK        -0.0944 
     11 C11        30.8781   -0.3338   -4.2227 C.ar      12 UNK        -0.0787 
     12 C12        30.4200   -0.8768   -5.4254 C.ar      12 UNK        -0.0862 
     13 C13        30.4056   -2.2596   -5.6219 C.ar      12 UNK        -0.0733 
     14 C14        30.8245   -3.1055   -4.5905 C.ar      12 UNK        -0.0832 
     15 C15        29.9782   -2.8274   -6.9681 C.3       12 UNK         0.0240 
     16 S16        28.4187   -3.7675   -6.9048 S.3       12 UNK        -0.2522 
     17 C17        27.2829   -2.6669   -5.9968 C.3       12 UNK        -0.0967 
     18 CA         26.4631   -1.7137   -6.9043 C.3       5 UNK         0.0660 
     19 N          25.0843   -1.5931   -6.4222 N.am      5 UNK        -0.4015 
     20 C          24.0932   -0.9217   -7.0252 C.2       4 UNK         0.4946 
     21 O          24.2119   -0.3688   -8.1180 O.2       4 UNK        -0.5353 
     22 CA         22.7692   -0.7882   -6.2458 C.3       4 UNK         0.0277 
     23 CB         21.7730   -1.8704   -6.6909 C.3       4 UNK        -0.1981 
     24 N          22.9281   -0.8391   -4.7839 N.am      4 UNK        -0.4209 
     25 C          23.6885    0.0017   -4.0655 C.2       3 UNK         0.4942 
     26 O          24.3201    0.9295   -4.5715 O.2       3 UNK        -0.5208 
     27 CA         23.8437   -0.2674   -2.5592 C.3       3 UNK         0.0250 
     28 CB         22.9888   -1.4379   -2.0304 C.3       3 UNK        -0.1990 
     29 N          25.2524   -0.5628   -2.3124 N.am      3 UNK        -0.4232 
     30 C          26.1907    0.3056   -1.9225 C.2       2 UNK         0.4993 
     31 O          25.9412    1.4538   -1.5505 O.2       2 UNK        -0.5286 
     32 CA         27.6553   -0.1931   -1.9659 C.3       2 UNK         0.0209 
     33 CB         28.6276    0.8051   -1.3083 C.3       2 UNK        -0.1931 
     34 N          27.8719   -1.5171   -1.3652 N.am      2 UNK        -0.4546 
     35 C          27.4554   -2.6939   -1.8512 C.2       1 UNK         0.5154 
     36 O          26.7590   -2.8061   -2.8652 O.2       1 UNK        -0.5181 
     37 C          27.1681   -0.3459   -7.0615 C.2       5 UNK         0.5014 
     38 O          28.0291   -0.2079   -7.9312 O.2       5 UNK        -0.5248 
     39 N          26.7787    0.6643   -6.2658 N.am      6 UNK        -0.4434 
     40 CA         27.3173    2.0250   -6.3556 C.3       6 UNK         0.0363 
     41 CB         26.9312    2.8236   -5.1012 C.3       6 UNK        -0.1936 
     42 C          26.8959    2.7741   -7.6354 C.2       6 UNK         0.5081 
     43 O          27.5456    3.7605   -7.9793 O.2       6 UNK        -0.5248 
     44 N          25.8533    2.2980   -8.3370 N.am      7 UNK        -0.4718 
     45 CA         25.4725    2.7965   -9.6629 C.3       7 UNK         0.0273 
     46 CB         24.0255    2.3905   -9.9836 C.3       7 UNK        -0.1935 
     47 C          26.4333    2.3048  -10.7604 C.2       7 UNK         0.5018 
     48 O          26.6808    3.0419  -11.7154 O.2       7 UNK        -0.5186 
     49 N          26.9754    1.0876  -10.5957 N.am      8 UNK        -0.4240 
     50 CA         28.0675    0.5543  -11.4161 C.3       8 UNK         0.0235 
     51 CB         28.0999   -0.9800  -11.3117 C.3       8 UNK        -0.2000 
     52 C          29.4205    1.1616  -11.0066 C.2       8 UNK         0.4941 
     53 O          30.2639    1.3976  -11.8716 O.2       8 UNK        -0.5273 
     54 N          29.5809    1.4177   -9.6989 N.am      9 UNK        -0.4262 
     55 CA         30.7003    2.1018   -9.0420 C.3       9 UNK         0.0264 
     56 CB         30.8467    3.5515   -9.5506 C.3       9 UNK        -0.1955 
     57 C          32.0246    1.3190   -9.0843 C.2       9 UNK         0.5031 
     58 O          33.0951    1.9171   -8.9569 O.2       9 UNK        -0.5390 
     59 N          31.9432   -0.0128   -9.2018 N.am      10 UNK        -0.4204 
     60 CA         33.0778   -0.9401   -9.1490 C.3       10 UNK         0.0237 
     61 CB         32.7037   -2.2254   -9.9116 C.3       10 UNK        -0.1985 
     62 C          33.5197   -1.2102   -7.6951 C.2       10 UNK         0.4970 
     63 O          33.5901   -2.3667   -7.2769 O.2       10 UNK        -0.4914 
     64 N          33.7747   -0.1315   -6.9452 N.am      11 UNK        -0.4285 
     65 CA         34.0602   -0.1454   -5.5021 C.3       11 UNK         0.1007 
     66 C          35.4921   -0.6190   -5.1196 C.2       11 UNK         0.5703 
     67 N          36.4096   -0.8001   -6.0625 N.am      11 UNK        -0.7361 
     68 O          35.7752   -0.8319   -3.9431 O.2       11 UNK        -0.4986 
     69 C69        33.7173    1.2122   -4.8205 C.3       12 UNK        -0.0947 
     70 S70        32.0947    1.9191   -5.2855 S.3       12 UNK        -0.2240 
     71 C71        30.9729    1.1753   -4.0574 C.3       12 UNK         0.0194 
     72 H72        24.5166   -6.7501   -0.0432 H         1 UNK         0.0906 
     73 H73        25.6183   -7.8437   -0.8848 H         1 UNK         0.0906 
     74 H74        24.8532   -6.5159   -1.7597 H         1 UNK         0.0906 
     75 H75        26.2502   -4.7698   -2.1121 H         1 UNK         0.3140 
     76 H76        27.8890   -3.7021   -0.0103 H         1 UNK         0.1085 
     77 H77        29.2969   -4.5823   -2.5986 H         1 UNK         0.0836 
     78 H78        29.3581   -5.5345   -1.1448 H         1 UNK         0.0836 
     79 H79        32.7365   -3.1361   -1.9225 H         1 UNK         0.0731 
     80 H80        31.9258   -4.5046   -2.6368 H         1 UNK         0.0731 
     81 H81        31.6564   -0.7774   -2.2650 H         1 UNK         0.1312 
     82 H82        30.1154   -0.2152   -6.2242 H         1 UNK         0.1406 
     83 H83        30.8193   -4.1758   -4.7460 H         1 UNK         0.1631 
     84 H84        30.7655   -3.4868   -7.3359 H         1 UNK         0.0717 
     85 H85        29.8831   -2.0354   -7.7108 H         1 UNK         0.0717 
     86 H86        26.6115   -3.3476   -5.4712 H         1 UNK         0.0934 
     87 H87        27.8034   -2.1324   -5.2010 H         1 UNK         0.0934 
     88 H88        26.3933   -2.1488   -7.9036 H         1 UNK         0.0739 
     89 H89        24.8863   -2.0185   -5.5291 H         1 UNK         0.3093 
     90 H90        22.3487    0.1884   -6.4950 H         1 UNK         0.0818 
     91 H91        21.6200   -1.8386   -7.7708 H         1 UNK         0.0819 
     92 H92        22.1242   -2.8724   -6.4413 H         1 UNK         0.0819 
     93 H93        20.7977   -1.7291   -6.2247 H         1 UNK         0.0819 
     94 H94        22.4393   -1.5780   -4.2988 H         1 UNK         0.3041 
     95 H95        23.5480    0.6420   -2.0322 H         1 UNK         0.0784 
     96 H96        21.9251   -1.2590   -2.1938 H         1 UNK         0.0793 
     97 H97        23.2503   -2.3880   -2.4984 H         1 UNK         0.0793 
     98 H98        23.1254   -1.5589   -0.9554 H         1 UNK         0.0793 
     99 H99        25.5854   -1.4800   -2.6040 H         1 UNK         0.3024 
    100 H100       27.9239   -0.2659   -3.0226 H         1 UNK         0.1171 
    101 H101       28.5901    1.7756   -1.8051 H         1 UNK         0.0786 
    102 H102       28.3868    0.9664   -0.2568 H         1 UNK         0.0786 
    103 H103       29.6579    0.4560   -1.3631 H         1 UNK         0.0786 
    104 H104       28.4313   -1.5280   -0.5241 H         1 UNK         0.2977 
    105 H105       26.0061    0.5323   -5.6198 H         1 UNK         0.3127 
    106 H106       28.4067    1.9480   -6.3746 H         1 UNK         0.0770 
    107 H107       27.4168    3.8003   -5.0991 H         1 UNK         0.0814 
    108 H108       25.8563    2.9983   -5.0480 H         1 UNK         0.0814 
    109 H109       27.2348    2.3099   -4.1893 H         1 UNK         0.0814 
    110 H110       25.3570    1.4812   -7.9986 H         1 UNK         0.2983 
    111 H111       25.5190    3.8880   -9.6464 H         1 UNK         0.0947 
    112 H112       23.9213    1.3115  -10.0986 H         1 UNK         0.0806 
    113 H113       23.6944    2.8469  -10.9173 H         1 UNK         0.0806 
    114 H114       23.3375    2.7141   -9.2024 H         1 UNK         0.0806 
    115 H115       26.7228    0.5569   -9.7735 H         1 UNK         0.3000 
    116 H116       27.8839    0.8194  -12.4598 H         1 UNK         0.0850 
    117 H117       28.8861   -1.3946  -11.9441 H         1 UNK         0.0810 
    118 H118       27.1572   -1.4183  -11.6396 H         1 UNK         0.0810 
    119 H119       28.2902   -1.3205  -10.2938 H         1 UNK         0.0810 
    120 H120       28.8608    1.0684   -9.0713 H         1 UNK         0.3040 
    121 H121       30.4281    2.1581   -7.9872 H         1 UNK         0.0766 
    122 H122       31.5640    4.1074   -8.9456 H         1 UNK         0.0812 
    123 H123       29.8986    4.0868   -9.4987 H         1 UNK         0.0812 
    124 H124       31.1969    3.5860  -10.5825 H         1 UNK         0.0812 
    125 H125       31.0238   -0.4218   -9.2783 H         1 UNK         0.3205 
    126 H126       33.9284   -0.4874   -9.6631 H         1 UNK         0.0754 
    127 H127       33.5393   -2.9265   -9.9306 H         1 UNK         0.0769 
    128 H128       32.4430   -2.0086  -10.9478 H         1 UNK         0.0769 
    129 H129       31.8574   -2.7383   -9.4541 H         1 UNK         0.0769 
    130 H130       33.6919    0.7813   -7.3795 H         1 UNK         0.2981 
    131 H131       33.4031   -0.8983   -5.0680 H         1 UNK         0.0541 
    132 H132       37.3323   -1.1106   -5.8019 H         1 UNK         0.3459 
    133 H133       36.1861   -0.6313   -7.0298 H         1 UNK         0.3459 
    134 H134       34.4727    1.9565   -5.0785 H         1 UNK         0.0612 
    135 H135       33.7533    1.1114   -3.7343 H         1 UNK         0.0612 
    136 H136       29.9794    1.6091   -4.1774 H         1 UNK         0.0624 
    137 H137       31.3117    1.4434   -3.0557 H         1 UNK         0.0624 
@<TRIPOS>BOND
     1    1    2 1    
     2    1   72 1    
     3    1   73 1    
     4    1   74 1    
     5    2    3 2    
     6    2    4 am   BACKBONE|DICT|INTERRES
     7    4    5 1    
     8    4   75 1    
     9    5    6 1    
    10    5   35 1    
    11    5   76 1    
    12    6    7 1    
    13    6   77 1    
    14    6   78 1    
    15    7    8 1    
    16    8    9 1    
    17    8   79 1    
    18    8   80 1    
    19    9   10 ar   
    20    9   14 ar   
    21   10   11 ar   
    22   10   81 1    
    23   11   12 ar   
    24   11   71 1    
    25   12   13 ar   
    26   12   82 1    
    27   13   14 ar   
    28   13   15 1    
    29   14   83 1    
    30   15   16 1    
    31   15   84 1    
    32   15   85 1    
    33   16   17 1    
    34   17   18 1    
    35   17   86 1    
    36   17   87 1    
    37   18   19 1    
    38   18   37 1    
    39   18   88 1    
    40   19   20 am   BACKBONE|DICT|INTERRES
    41   19   89 1    
    42   20   21 2    
    43   20   22 1    
    44   22   23 1    
    45   22   24 1    
    46   22   90 1    
    47   23   91 1    
    48   23   92 1    
    49   23   93 1    
    50   24   25 am   BACKBONE|DICT|INTERRES
    51   24   94 1    
    52   25   26 2    
    53   25   27 1    
    54   27   28 1    
    55   27   29 1    
    56   27   95 1    
    57   28   96 1    
    58   28   97 1    
    59   28   98 1    
    60   29   30 am   BACKBONE|DICT|INTERRES
    61   29   99 1    
    62   30   31 2    
    63   30   32 1    
    64   32   33 1    
    65   32   34 1    
    66   32  100 1    
    67   33  101 1    
    68   33  102 1    
    69   33  103 1    
    70   34   35 am   BACKBONE|DICT|INTERRES
    71   34  104 1    
    72   35   36 2    
    73   37   38 2    
    74   37   39 am   BACKBONE|DICT|INTERRES
    75   39   40 1    
    76   39  105 1    
    77   40   41 1    
    78   40   42 1    
    79   40  106 1    
    80   41  107 1    
    81   41  108 1    
    82   41  109 1    
    83   42   43 2    
    84   42   44 am   BACKBONE|DICT|INTERRES
    85   44   45 1    
    86   44  110 1    
    87   45   46 1    
    88   45   47 1    
    89   45  111 1    
    90   46  112 1    
    91   46  113 1    
    92   46  114 1    
    93   47   48 2    
    94   47   49 am   BACKBONE|DICT|INTERRES
    95   49   50 1    
    96   49  115 1    
    97   50   51 1    
    98   50   52 1    
    99   50  116 1    
   100   51  117 1    
   101   51  118 1    
   102   51  119 1    
   103   52   53 2    
   104   52   54 am   BACKBONE|DICT|INTERRES
   105   54   55 1    
   106   54  120 1    
   107   55   56 1    
   108   55   57 1    
   109   55  121 1    
   110   56  122 1    
   111   56  123 1    
   112   56  124 1    
   113   57   58 2    
   114   57   59 am   BACKBONE|DICT|INTERRES
   115   59   60 1    
   116   59  125 1    
   117   60   61 1    
   118   60   62 1    
   119   60  126 1    
   120   61  127 1    
   121   61  128 1    
   122   61  129 1    
   123   62   63 2    
   124   62   64 am   BACKBONE|DICT|INTERRES
   125   64   65 1    
   126   64  130 1    
   127   65   66 1    
   128   65   69 1    
   129   65  131 1    
   130   66   67 am   BACKBONE|DICT|INTERRES
   131   66   68 2    
   132   67  132 1    
   133   67  133 1    
   134   69   70 1    
   135   69  134 1    
   136   69  135 1    
   137   70   71 1    
   138   71  136 1    
   139   71  137 1    
@<TRIPOS>SUBSTRUCTURE
     1 UNK         1 GROUP             0       ****    0 ROOT    
