@<TRIPOS>MOLECULE
3R137
137   139    1
SMALL
USER_CHARGES


@<TRIPOS>ATOM
      1 CA         24.2898   -6.4570   -3.5171 C.3       0 UNK        -0.2020 
      2 C          25.3665   -5.4081   -3.2861 C.2       0 UNK         0.4855 
      3 O          25.6834   -4.6508   -4.2024 O.2       0 UNK        -0.5197 
      4 N          25.9167   -5.3500   -2.0649 N.am      1 UNK        -0.4892 
      5 CA         26.9844   -4.4371   -1.6307 C.3       1 UNK         0.0835 
      6 C6         28.3563   -4.7891   -2.2671 C.3       12 UNK        -0.0855 
      7 S7         29.7401   -4.4237   -1.1397 S.3       12 UNK        -0.2931 
      8 C8         31.0420   -3.9096   -2.3096 C.3       12 UNK         0.0378 
      9 C9         30.9660   -2.4491   -2.7526 C.ar      12 UNK        -0.0802 
     10 C10        31.3356   -2.1108   -4.0582 C.ar      12 UNK        -0.0944 
     11 C11        31.4000   -0.7728   -4.4576 C.ar      12 UNK        -0.0787 
     12 C12        31.0730    0.2329   -3.5452 C.ar      12 UNK        -0.0862 
     13 C13        30.6525   -0.0865   -2.2506 C.ar      12 UNK        -0.0733 
     14 C14        30.6162   -1.4290   -1.8583 C.ar      12 UNK        -0.0832 
     15 C15        30.2650    1.0077   -1.2572 C.3       12 UNK         0.0240 
     16 S16        29.1611    2.2897   -1.9521 S.3       12 UNK        -0.2522 
     17 C17        27.7776    1.2921   -2.5966 C.3       12 UNK        -0.0967 
     18 CA         27.7739    1.2514   -4.1494 C.3       5 UNK         0.0660 
     19 N          27.4168   -0.0690   -4.6667 N.am      5 UNK        -0.4015 
     20 C          27.5426   -0.4523   -5.9452 C.2       4 UNK         0.4946 
     21 O          28.0481    0.2388   -6.8318 O.2       4 UNK        -0.5353 
     22 CA         26.9735   -1.8344   -6.3035 C.3       4 UNK         0.0277 
     23 CB         28.0115   -2.9271   -6.0086 C.3       4 UNK        -0.1981 
     24 N          25.7243   -2.1313   -5.5930 N.am      4 UNK        -0.4209 
     25 C          24.5901   -1.4265   -5.7290 C.2       3 UNK         0.4942 
     26 O          24.4568   -0.4886   -6.5128 O.2       3 UNK        -0.5208 
     27 CA         23.4255   -1.7800   -4.7920 C.3       3 UNK         0.0250 
     28 CB         22.6966   -3.0492   -5.2614 C.3       3 UNK        -0.1990 
     29 N          23.8596   -1.9251   -3.4011 N.am      3 UNK        -0.4232 
     30 C          24.3393   -0.9220   -2.6502 C.2       2 UNK         0.4993 
     31 O          24.4375    0.2402   -3.0399 O.2       2 UNK        -0.5286 
     32 CA         24.8301   -1.2752   -1.2373 C.3       2 UNK         0.0209 
     33 CB         23.6787   -1.1745   -0.2245 C.3       2 UNK        -0.1931 
     34 N          25.4433   -2.6032   -1.1557 N.am      2 UNK        -0.4546 
     35 C          26.5676   -2.9579   -1.7951 C.2       1 UNK         0.5154 
     36 O          27.2007   -2.1909   -2.5238 O.2       1 UNK        -0.5181 
     37 C          26.9010    2.3654   -4.7619 C.2       5 UNK         0.5014 
     38 O          27.4434    3.3439   -5.2768 O.2       5 UNK        -0.5248 
     39 N          25.5719    2.1847   -4.7266 N.am      6 UNK        -0.4434 
     40 CA         24.5810    3.1114   -5.2825 C.3       6 UNK         0.0363 
     41 CB         23.1694    2.6623   -4.8731 C.3       6 UNK        -0.1936 
     42 C          24.6758    3.2636   -6.8096 C.2       6 UNK         0.5081 
     43 O          24.5439    4.3787   -7.3147 O.2       6 UNK        -0.5248 
     44 N          24.9209    2.1516   -7.5159 N.am      7 UNK        -0.4718 
     45 CA         25.1389    2.1181   -8.9650 C.3       7 UNK         0.0273 
     46 CB         25.0009    0.6687   -9.4595 C.3       7 UNK        -0.1935 
     47 C          26.5003    2.6921   -9.3971 C.2       7 UNK         0.5018 
     48 O          26.6580    3.0106  -10.5764 O.2       7 UNK        -0.5186 
     49 N          27.4496    2.7899   -8.4529 N.am      8 UNK        -0.4240 
     50 CA         28.8557    3.1653   -8.6297 C.3       8 UNK         0.0235 
     51 CB         28.9882    4.6443   -9.0513 C.3       8 UNK        -0.2000 
     52 C          29.5799    2.1891   -9.5749 C.2       8 UNK         0.4941 
     53 O          30.1596    2.6081  -10.5800 O.2       8 UNK        -0.5273 
     54 N          29.4896    0.8929   -9.2453 N.am      9 UNK        -0.4262 
     55 CA         30.0913   -0.2135   -9.9930 C.3       9 UNK         0.0264 
     56 CB         29.5905   -1.5389   -9.3976 C.3       9 UNK        -0.1955 
     57 C          31.6304   -0.1693   -9.9912 C.2       9 UNK         0.5031 
     58 O          32.2361    0.4435   -9.1083 O.2       9 UNK        -0.5390 
     59 N          32.2418   -0.8581  -10.9634 N.am      10 UNK        -0.4204 
     60 CA         33.6922   -0.9478  -11.1671 C.3       10 UNK         0.0237 
     61 CB         33.9633   -1.3585  -12.6273 C.3       10 UNK        -0.1985 
     62 C          34.3923   -1.8751  -10.1496 C.2       10 UNK         0.4970 
     63 O          35.0686   -2.8273  -10.5432 O.2       10 UNK        -0.4914 
     64 N          34.2166   -1.5793   -8.8582 N.am      11 UNK        -0.4285 
     65 CA         34.8651   -2.2570   -7.7250 C.3       11 UNK         0.1007 
     66 C          36.3666   -1.8979   -7.5178 C.2       11 UNK         0.5703 
     67 N          36.9128   -0.8919   -8.1915 N.am      11 UNK        -0.7361 
     68 O          37.0539   -2.5587   -6.7425 O.2       11 UNK        -0.4986 
     69 C69        34.0392   -2.1030   -6.4193 C.3       12 UNK        -0.0947 
     70 S70        33.6569   -0.3654   -5.9935 S.3       12 UNK        -0.2240 
     71 C71        31.8411   -0.4030   -5.8651 C.3       12 UNK         0.0194 
     72 H72        24.5524   -7.0791   -4.3723 H         1 UNK         0.0906 
     73 H73        24.1607   -7.1080   -2.6527 H         1 UNK         0.0906 
     74 H74        23.3347   -5.9764   -3.7266 H         1 UNK         0.0906 
     75 H75        25.5947   -5.9968   -1.3571 H         1 UNK         0.3140 
     76 H76        27.0680   -4.6001   -0.5545 H         1 UNK         0.1085 
     77 H77        28.4066   -5.8580   -2.4805 H         1 UNK         0.0836 
     78 H78        28.4977   -4.2970   -3.2285 H         1 UNK         0.0836 
     79 H79        31.0239   -4.5774   -3.1726 H         1 UNK         0.0731 
     80 H80        32.0091   -4.0617   -1.8289 H         1 UNK         0.0731 
     81 H81        31.6091   -2.8894   -4.7559 H         1 UNK         0.1312 
     82 H82        31.1349    1.2692   -3.8474 H         1 UNK         0.1406 
     83 H83        30.3298   -1.6802   -0.8465 H         1 UNK         0.1631 
     84 H84        31.1743    1.4881   -0.8940 H         1 UNK         0.0717 
     85 H85        29.7753    0.5747   -0.3835 H         1 UNK         0.0717 
     86 H86        27.8702    0.2872   -2.1843 H         1 UNK         0.0934 
     87 H87        26.8392    1.6765   -2.1916 H         1 UNK         0.0934 
     88 H88        28.7887    1.4312   -4.5074 H         1 UNK         0.0739 
     89 H89        27.0630   -0.7428   -3.9953 H         1 UNK         0.3093 
     90 H90        26.7561   -1.8415   -7.3733 H         1 UNK         0.0818 
     91 H91        28.3127   -2.9115   -4.9622 H         1 UNK         0.0819 
     92 H92        27.6246   -3.9208   -6.2350 H         1 UNK         0.0819 
     93 H93        28.9140   -2.7843   -6.6016 H         1 UNK         0.0819 
     94 H94        25.7398   -2.9224   -4.9515 H         1 UNK         0.3041 
     95 H95        22.7125   -0.9533   -4.8281 H         1 UNK         0.0784 
     96 H96        22.3108   -2.9199   -6.2735 H         1 UNK         0.0793 
     97 H97        23.3543   -3.9178   -5.2768 H         1 UNK         0.0793 
     98 H98        21.8467   -3.2808   -4.6193 H         1 UNK         0.0793 
     99 H99        23.8507   -2.8554   -3.0109 H         1 UNK         0.3024 
    100 H100       25.5906   -0.5393   -0.9662 H         1 UNK         0.1171 
    101 H101       24.0314   -1.3339    0.7947 H         1 UNK         0.0786 
    102 H102       23.2193   -0.1852   -0.2548 H         1 UNK         0.0786 
    103 H103       22.8941   -1.9044   -0.4277 H         1 UNK         0.0786 
    104 H104       24.9656   -3.2950   -0.5958 H         1 UNK         0.2977 
    105 H105       25.1999    1.3679   -4.2422 H         1 UNK         0.3127 
    106 H106       24.7667    4.0933   -4.8422 H         1 UNK         0.0770 
    107 H107       22.9395    1.6653   -5.2512 H         1 UNK         0.0814 
    108 H108       22.4125    3.3440   -5.2633 H         1 UNK         0.0814 
    109 H109       23.0592    2.6411   -3.7887 H         1 UNK         0.0814 
    110 H110       24.9376    1.2548   -7.0330 H         1 UNK         0.2983 
    111 H111       24.3634    2.7207   -9.4429 H         1 UNK         0.0947 
    112 H112       25.1222    0.6094  -10.5420 H         1 UNK         0.0806 
    113 H113       24.0193    0.2593   -9.2205 H         1 UNK         0.0806 
    114 H114       25.7534    0.0192   -9.0100 H         1 UNK         0.0806 
    115 H115       27.2052    2.4764   -7.5217 H         1 UNK         0.3000 
    116 H116       29.3269    3.0566   -7.6513 H         1 UNK         0.0850 
    117 H117       30.0360    4.9450   -9.0863 H         1 UNK         0.0810 
    118 H118       28.4844    5.3028   -8.3436 H         1 UNK         0.0810 
    119 H119       28.5656    4.8271  -10.0396 H         1 UNK         0.0810 
    120 H120       28.9942    0.6491   -8.3889 H         1 UNK         0.3040 
    121 H121       29.7470   -0.1382  -11.0265 H         1 UNK         0.0766 
    122 H122       28.5015   -1.5915   -9.4030 H         1 UNK         0.0812 
    123 H123       29.9262   -1.6611   -8.3686 H         1 UNK         0.0812 
    124 H124       29.9584   -2.3948   -9.9646 H         1 UNK         0.0812 
    125 H125       31.6702   -1.3695  -11.6209 H         1 UNK         0.3205 
    126 H126       34.1166    0.0485  -11.0249 H         1 UNK         0.0754 
    127 H127       35.0341   -1.3846  -12.8350 H         1 UNK         0.0769 
    128 H128       33.5194   -0.6508  -13.3279 H         1 UNK         0.0769 
    129 H129       33.5632   -2.3485  -12.8503 H         1 UNK         0.0769 
    130 H130       33.6295   -0.7809   -8.6289 H         1 UNK         0.2981 
    131 H131       34.8676   -3.3233   -7.9592 H         1 UNK         0.0541 
    132 H132       36.3563   -0.3372   -8.8210 H         1 UNK         0.3459 
    133 H133       37.8871   -0.6756   -8.0521 H         1 UNK         0.3459 
    134 H134       33.1095   -2.6602   -6.5328 H         1 UNK         0.0612 
    135 H135       34.5499   -2.5643   -5.5721 H         1 UNK         0.0612 
    136 H136       31.4526    0.5808   -6.1337 H         1 UNK         0.0624 
    137 H137       31.4195   -1.0961   -6.5932 H         1 UNK         0.0624 
@<TRIPOS>BOND
     1    1    2 1    
     2    1   72 1    
     3    1   73 1    
     4    1   74 1    
     5    2    3 2    
     6    2    4 am   BACKBONE|DICT|INTERRES
     7    4    5 1    
     8    4   75 1    
     9    5    6 1    
    10    5   35 1    
    11    5   76 1    
    12    6    7 1    
    13    6   77 1    
    14    6   78 1    
    15    7    8 1    
    16    8    9 1    
    17    8   79 1    
    18    8   80 1    
    19    9   10 ar   
    20    9   14 ar   
    21   10   11 ar   
    22   10   81 1    
    23   11   12 ar   
    24   11   71 1    
    25   12   13 ar   
    26   12   82 1    
    27   13   14 ar   
    28   13   15 1    
    29   14   83 1    
    30   15   16 1    
    31   15   84 1    
    32   15   85 1    
    33   16   17 1    
    34   17   18 1    
    35   17   86 1    
    36   17   87 1    
    37   18   19 1    
    38   18   37 1    
    39   18   88 1    
    40   19   20 am   BACKBONE|DICT|INTERRES
    41   19   89 1    
    42   20   21 2    
    43   20   22 1    
    44   22   23 1    
    45   22   24 1    
    46   22   90 1    
    47   23   91 1    
    48   23   92 1    
    49   23   93 1    
    50   24   25 am   BACKBONE|DICT|INTERRES
    51   24   94 1    
    52   25   26 2    
    53   25   27 1    
    54   27   28 1    
    55   27   29 1    
    56   27   95 1    
    57   28   96 1    
    58   28   97 1    
    59   28   98 1    
    60   29   30 am   BACKBONE|DICT|INTERRES
    61   29   99 1    
    62   30   31 2    
    63   30   32 1    
    64   32   33 1    
    65   32   34 1    
    66   32  100 1    
    67   33  101 1    
    68   33  102 1    
    69   33  103 1    
    70   34   35 am   BACKBONE|DICT|INTERRES
    71   34  104 1    
    72   35   36 2    
    73   37   38 2    
    74   37   39 am   BACKBONE|DICT|INTERRES
    75   39   40 1    
    76   39  105 1    
    77   40   41 1    
    78   40   42 1    
    79   40  106 1    
    80   41  107 1    
    81   41  108 1    
    82   41  109 1    
    83   42   43 2    
    84   42   44 am   BACKBONE|DICT|INTERRES
    85   44   45 1    
    86   44  110 1    
    87   45   46 1    
    88   45   47 1    
    89   45  111 1    
    90   46  112 1    
    91   46  113 1    
    92   46  114 1    
    93   47   48 2    
    94   47   49 am   BACKBONE|DICT|INTERRES
    95   49   50 1    
    96   49  115 1    
    97   50   51 1    
    98   50   52 1    
    99   50  116 1    
   100   51  117 1    
   101   51  118 1    
   102   51  119 1    
   103   52   53 2    
   104   52   54 am   BACKBONE|DICT|INTERRES
   105   54   55 1    
   106   54  120 1    
   107   55   56 1    
   108   55   57 1    
   109   55  121 1    
   110   56  122 1    
   111   56  123 1    
   112   56  124 1    
   113   57   58 2    
   114   57   59 am   BACKBONE|DICT|INTERRES
   115   59   60 1    
   116   59  125 1    
   117   60   61 1    
   118   60   62 1    
   119   60  126 1    
   120   61  127 1    
   121   61  128 1    
   122   61  129 1    
   123   62   63 2    
   124   62   64 am   BACKBONE|DICT|INTERRES
   125   64   65 1    
   126   64  130 1    
   127   65   66 1    
   128   65   69 1    
   129   65  131 1    
   130   66   67 am   BACKBONE|DICT|INTERRES
   131   66   68 2    
   132   67  132 1    
   133   67  133 1    
   134   69   70 1    
   135   69  134 1    
   136   69  135 1    
   137   70   71 1    
   138   71  136 1    
   139   71  137 1    
@<TRIPOS>SUBSTRUCTURE
     1 UNK         1 GROUP             0       ****    0 ROOT    
