@<TRIPOS>MOLECULE
3R137
137   139    1
SMALL
USER_CHARGES


@<TRIPOS>ATOM
      1 CA         25.2002   -1.6031   -7.9172 C.3       0 UNK        -0.2020 
      2 C          25.4611   -2.8955   -7.1585 C.2       0 UNK         0.4855 
      3 O          24.9257   -3.9419   -7.5237 O.2       0 UNK        -0.5197 
      4 N          26.2776   -2.8374   -6.1005 N.am      1 UNK        -0.4892 
      5 CA         26.7461   -3.9901   -5.3222 C.3       1 UNK         0.0835 
      6 C6         28.1918   -3.7547   -4.8175 C.3       12 UNK        -0.0855 
      7 S7         29.1228   -5.3139   -4.6215 S.3       12 UNK        -0.2931 
      8 C8         29.7167   -5.1773   -2.9014 C.3       12 UNK         0.0378 
      9 C9         30.5147   -3.9009   -2.6580 C.ar      12 UNK        -0.0802 
     10 C10        31.5788   -3.5563   -3.4961 C.ar      12 UNK        -0.0944 
     11 C11        32.2644   -2.3520   -3.3193 C.ar      12 UNK        -0.0787 
     12 C12        31.9068   -1.5020   -2.2690 C.ar      12 UNK        -0.0862 
     13 C13        30.8627   -1.8496   -1.4063 C.ar      12 UNK        -0.0733 
     14 C14        30.1696   -3.0474   -1.6067 C.ar      12 UNK        -0.0832 
     15 C15        30.4771   -0.9388   -0.2524 C.3       12 UNK         0.0240 
     16 S16        28.8927   -0.1015   -0.5605 S.3       12 UNK        -0.2522 
     17 C17        29.3566    1.1634   -1.7929 C.3       12 UNK        -0.0967 
     18 CA         28.6973    0.9503   -3.1840 C.3       5 UNK         0.0660 
     19 N          27.2381    0.8326   -3.0744 N.am      5 UNK        -0.4015 
     20 C          26.4206    0.2983   -3.9879 C.2       4 UNK         0.4946 
     21 O          26.8158   -0.2953   -4.9959 O.2       4 UNK        -0.5353 
     22 CA         24.9135    0.4861   -3.7449 C.3       4 UNK         0.0277 
     23 CB         24.1173    0.5236   -5.0608 C.3       4 UNK        -0.1981 
     24 N          24.3751   -0.5759   -2.9025 N.am      4 UNK        -0.4209 
     25 C          24.5573   -0.7054   -1.5840 C.2       3 UNK         0.4942 
     26 O          25.1634    0.1217   -0.9021 O.2       3 UNK        -0.5208 
     27 CA         23.9839   -1.9644   -0.9021 C.3       3 UNK         0.0250 
     28 CB         22.6428   -1.6590   -0.2062 C.3       3 UNK        -0.1990 
     29 N          23.8874   -3.1472   -1.7747 N.am      3 UNK        -0.4232 
     30 C          23.0849   -3.3638   -2.8269 C.2       2 UNK         0.4993 
     31 O          22.2495   -2.5549   -3.2332 O.2       2 UNK        -0.5286 
     32 CA         23.3453   -4.6550   -3.6225 C.3       2 UNK         0.0209 
     33 CB         22.1100   -5.1061   -4.4232 C.3       2 UNK        -0.1931 
     34 N          24.4637   -4.4596   -4.5475 N.am      2 UNK        -0.4546 
     35 C          25.7515   -4.3476   -4.1955 C.2       1 UNK         0.5154 
     36 O          26.1403   -4.4889   -3.0335 O.2       1 UNK        -0.5181 
     37 C          29.0305    2.1085   -4.1554 C.2       5 UNK         0.5014 
     38 O          29.5241    3.1513   -3.7212 O.2       5 UNK        -0.5248 
     39 N          28.6596    1.9467   -5.4307 N.am      6 UNK        -0.4434 
     40 CA         28.5571    3.0221   -6.4153 C.3       6 UNK         0.0363 
     41 CB         27.0606    3.2737   -6.6830 C.3       6 UNK        -0.1936 
     42 C          29.2820    2.6722   -7.7182 C.2       6 UNK         0.5081 
     43 O          29.7190    1.5344   -7.9149 O.2       6 UNK        -0.5248 
     44 N          29.3548    3.6645   -8.6168 N.am      7 UNK        -0.4718 
     45 CA         29.9470    3.5812   -9.9578 C.3       7 UNK         0.0273 
     46 CB         29.8613    4.9568  -10.6366 C.3       7 UNK        -0.1935 
     47 C          29.3311    2.4978  -10.8609 C.2       7 UNK         0.5018 
     48 O          30.0300    1.9827  -11.7320 O.2       7 UNK        -0.5186 
     49 N          28.0755    2.1115  -10.5916 N.am      8 UNK        -0.4240 
     50 CA         27.3899    0.9664  -11.2011 C.3       8 UNK         0.0235 
     51 CB         25.9405    0.9202  -10.6905 C.3       8 UNK        -0.2000 
     52 C          28.0920   -0.3861  -10.9571 C.2       8 UNK         0.4941 
     53 O          27.9639   -1.2834  -11.7903 O.2       8 UNK        -0.5273 
     54 N          28.8354   -0.4978   -9.8471 N.am      9 UNK        -0.4262 
     55 CA         29.6979   -1.6340   -9.5136 C.3       9 UNK         0.0264 
     56 CB         29.4055   -2.0495   -8.0617 C.3       9 UNK        -0.1955 
     57 C          31.1927   -1.2970   -9.6899 C.2       9 UNK         0.5031 
     58 O          32.0326   -2.1250   -9.3369 O.2       9 UNK        -0.5390 
     59 N          31.5023   -0.0948  -10.2048 N.am      10 UNK        -0.4204 
     60 CA         32.8263    0.5379  -10.2846 C.3       10 UNK         0.0237 
     61 CB         33.7677   -0.2478  -11.2228 C.3       10 UNK        -0.1985 
     62 C          33.4508    0.8244   -8.9012 C.2       10 UNK         0.4970 
     63 O          34.6772    0.8556   -8.7837 O.2       10 UNK        -0.4914 
     64 N          32.6024    1.0416   -7.8876 N.am      11 UNK        -0.4285 
     65 CA         32.9828    1.2589   -6.4819 C.3       11 UNK         0.1007 
     66 C          32.8456    2.7390   -6.0235 C.2       11 UNK         0.5703 
     67 N          32.5296    3.6836   -6.9021 N.am      11 UNK        -0.7361 
     68 O          33.0629    3.0450   -4.8540 O.2       11 UNK        -0.4986 
     69 C69        32.2155    0.2828   -5.5504 C.3       12 UNK        -0.0947 
     70 S70        32.6851   -1.4483   -5.8835 S.3       12 UNK        -0.2240 
     71 C71        33.3745   -1.9739   -4.2852 C.3       12 UNK         0.0194 
     72 H72        25.4997   -1.7189   -8.9585 H         1 UNK         0.0906 
     73 H73        24.1393   -1.3566   -7.8932 H         1 UNK         0.0906 
     74 H74        25.7582   -0.7657   -7.4983 H         1 UNK         0.0906 
     75 H75        26.6036   -1.9268   -5.7739 H         1 UNK         0.3140 
     76 H76        26.7684   -4.8538   -5.9912 H         1 UNK         0.1085 
     77 H77        28.1994   -3.1626   -3.9003 H         1 UNK         0.0836 
     78 H78        28.7525   -3.1598   -5.5387 H         1 UNK         0.0836 
     79 H79        30.3446   -6.0390   -2.6717 H         1 UNK         0.0731 
     80 H80        28.8558   -5.2316   -2.2328 H         1 UNK         0.0731 
     81 H81        31.8485   -4.2084   -4.3159 H         1 UNK         0.1312 
     82 H82        32.4377   -0.5708   -2.1263 H         1 UNK         0.1406 
     83 H83        29.3490   -3.3034   -0.9497 H         1 UNK         0.1631 
     84 H84        31.2542   -0.1987   -0.0546 H         1 UNK         0.0717 
     85 H85        30.3870   -1.5341    0.6573 H         1 UNK         0.0717 
     86 H86        29.0687    2.1299   -1.3743 H         1 UNK         0.0934 
     87 H87        30.4427    1.1961   -1.8950 H         1 UNK         0.0934 
     88 H88        29.0951    0.0266   -3.6113 H         1 UNK         0.0739 
     89 H89        26.8258    1.2301   -2.2409 H         1 UNK         0.3093 
     90 H90        24.7672    1.4444   -3.2417 H         1 UNK         0.0818 
     91 H91        24.5412    1.2465   -5.7590 H         1 UNK         0.0819 
     92 H92        24.1109   -0.4480   -5.5533 H         1 UNK         0.0819 
     93 H93        23.0806    0.8115   -4.8855 H         1 UNK         0.0819 
     94 H94        23.7995   -1.2763   -3.3565 H         1 UNK         0.3041 
     95 H95        24.6997   -2.2371   -0.1248 H         1 UNK         0.0784 
     96 H96        22.7602   -0.8595    0.5266 H         1 UNK         0.0793 
     97 H97        21.8781   -1.3364   -0.9133 H         1 UNK         0.0793 
     98 H98        22.2632   -2.5318    0.3249 H         1 UNK         0.0793 
     99 H99        24.6279   -3.8276   -1.6394 H         1 UNK         0.3024 
    100 H100       23.5993   -5.4486   -2.9157 H         1 UNK         0.1171 
    101 H101       21.8289   -4.3763   -5.1838 H         1 UNK         0.0786 
    102 H102       22.2890   -6.0578   -4.9240 H         1 UNK         0.0786 
    103 H103       21.2491   -5.2421   -3.7673 H         1 UNK         0.0786 
    104 H104       24.2360   -4.3146   -5.5247 H         1 UNK         0.2977 
    105 H105       28.2735    1.0501   -5.7082 H         1 UNK         0.3127 
    106 H106       29.0094    3.9389   -6.0313 H         1 UNK         0.0770 
    107 H107       26.9069    4.1045   -7.3724 H         1 UNK         0.0814 
    108 H108       26.5336    3.5255   -5.7623 H         1 UNK         0.0814 
    109 H109       26.5747    2.3960   -7.1121 H         1 UNK         0.0814 
    110 H110       28.9679    4.5629   -8.3632 H         1 UNK         0.2983 
    111 H111       31.0015    3.3291   -9.8332 H         1 UNK         0.0947 
    112 H112       30.3173    4.9331  -11.6277 H         1 UNK         0.0806 
    113 H113       30.3872    5.7184  -10.0604 H         1 UNK         0.0806 
    114 H114       28.8279    5.2827  -10.7616 H         1 UNK         0.0806 
    115 H115       27.5794    2.6025   -9.8626 H         1 UNK         0.3000 
    116 H116       27.3705    1.1300  -12.2807 H         1 UNK         0.0850 
    117 H117       25.8972    0.8215   -9.6054 H         1 UNK         0.0810 
    118 H118       25.4010    0.0736  -11.1181 H         1 UNK         0.0810 
    119 H119       25.3938    1.8219  -10.9671 H         1 UNK         0.0810 
    120 H120       28.8970    0.2924   -9.2108 H         1 UNK         0.3040 
    121 H121       29.4811   -2.4840  -10.1635 H         1 UNK         0.0766 
    122 H122       28.3607   -2.3288   -7.9389 H         1 UNK         0.0812 
    123 H123       29.6255   -1.2454   -7.3578 H         1 UNK         0.0812 
    124 H124       30.0061   -2.9115   -7.7680 H         1 UNK         0.0812 
    125 H125       30.7410    0.4771  -10.5530 H         1 UNK         0.3205 
    126 H126       32.6614    1.5148  -10.7409 H         1 UNK         0.0754 
    127 H127       34.6867    0.3088  -11.4109 H         1 UNK         0.0769 
    128 H128       33.2996   -0.4327  -12.1897 H         1 UNK         0.0769 
    129 H129       34.0541   -1.2103  -10.7982 H         1 UNK         0.0769 
    130 H130       31.6020    1.0294   -8.0604 H         1 UNK         0.2981 
    131 H131       34.0455    1.0412   -6.3623 H         1 UNK         0.0541 
    132 H132       32.3920    3.4539   -7.8713 H         1 UNK         0.3459 
    133 H133       32.4650    4.6398   -6.5918 H         1 UNK         0.3459 
    134 H134       31.1387    0.3808   -5.6936 H         1 UNK         0.0612 
    135 H135       32.4055    0.5079   -4.5000 H         1 UNK         0.0612 
    136 H136       34.0194   -2.8384   -4.4488 H         1 UNK         0.0624 
    137 H137       34.0114   -1.1889   -3.8747 H         1 UNK         0.0624 
@<TRIPOS>BOND
     1    1    2 1    
     2    1   72 1    
     3    1   73 1    
     4    1   74 1    
     5    2    3 2    
     6    2    4 am   BACKBONE|DICT|INTERRES
     7    4    5 1    
     8    4   75 1    
     9    5    6 1    
    10    5   35 1    
    11    5   76 1    
    12    6    7 1    
    13    6   77 1    
    14    6   78 1    
    15    7    8 1    
    16    8    9 1    
    17    8   79 1    
    18    8   80 1    
    19    9   10 ar   
    20    9   14 ar   
    21   10   11 ar   
    22   10   81 1    
    23   11   12 ar   
    24   11   71 1    
    25   12   13 ar   
    26   12   82 1    
    27   13   14 ar   
    28   13   15 1    
    29   14   83 1    
    30   15   16 1    
    31   15   84 1    
    32   15   85 1    
    33   16   17 1    
    34   17   18 1    
    35   17   86 1    
    36   17   87 1    
    37   18   19 1    
    38   18   37 1    
    39   18   88 1    
    40   19   20 am   BACKBONE|DICT|INTERRES
    41   19   89 1    
    42   20   21 2    
    43   20   22 1    
    44   22   23 1    
    45   22   24 1    
    46   22   90 1    
    47   23   91 1    
    48   23   92 1    
    49   23   93 1    
    50   24   25 am   BACKBONE|DICT|INTERRES
    51   24   94 1    
    52   25   26 2    
    53   25   27 1    
    54   27   28 1    
    55   27   29 1    
    56   27   95 1    
    57   28   96 1    
    58   28   97 1    
    59   28   98 1    
    60   29   30 am   BACKBONE|DICT|INTERRES
    61   29   99 1    
    62   30   31 2    
    63   30   32 1    
    64   32   33 1    
    65   32   34 1    
    66   32  100 1    
    67   33  101 1    
    68   33  102 1    
    69   33  103 1    
    70   34   35 am   BACKBONE|DICT|INTERRES
    71   34  104 1    
    72   35   36 2    
    73   37   38 2    
    74   37   39 am   BACKBONE|DICT|INTERRES
    75   39   40 1    
    76   39  105 1    
    77   40   41 1    
    78   40   42 1    
    79   40  106 1    
    80   41  107 1    
    81   41  108 1    
    82   41  109 1    
    83   42   43 2    
    84   42   44 am   BACKBONE|DICT|INTERRES
    85   44   45 1    
    86   44  110 1    
    87   45   46 1    
    88   45   47 1    
    89   45  111 1    
    90   46  112 1    
    91   46  113 1    
    92   46  114 1    
    93   47   48 2    
    94   47   49 am   BACKBONE|DICT|INTERRES
    95   49   50 1    
    96   49  115 1    
    97   50   51 1    
    98   50   52 1    
    99   50  116 1    
   100   51  117 1    
   101   51  118 1    
   102   51  119 1    
   103   52   53 2    
   104   52   54 am   BACKBONE|DICT|INTERRES
   105   54   55 1    
   106   54  120 1    
   107   55   56 1    
   108   55   57 1    
   109   55  121 1    
   110   56  122 1    
   111   56  123 1    
   112   56  124 1    
   113   57   58 2    
   114   57   59 am   BACKBONE|DICT|INTERRES
   115   59   60 1    
   116   59  125 1    
   117   60   61 1    
   118   60   62 1    
   119   60  126 1    
   120   61  127 1    
   121   61  128 1    
   122   61  129 1    
   123   62   63 2    
   124   62   64 am   BACKBONE|DICT|INTERRES
   125   64   65 1    
   126   64  130 1    
   127   65   66 1    
   128   65   69 1    
   129   65  131 1    
   130   66   67 am   BACKBONE|DICT|INTERRES
   131   66   68 2    
   132   67  132 1    
   133   67  133 1    
   134   69   70 1    
   135   69  134 1    
   136   69  135 1    
   137   70   71 1    
   138   71  136 1    
   139   71  137 1    
@<TRIPOS>SUBSTRUCTURE
     1 UNK         1 GROUP             0       ****    0 ROOT    
