@<TRIPOS>MOLECULE
3R137
137   139    1
SMALL
USER_CHARGES


@<TRIPOS>ATOM
      1 CA         30.0243    1.8043   -0.0360 C.3       0 UNK        -0.2020 
      2 C          29.6625    0.9213    1.1564 C.2       0 UNK         0.4855 
      3 O          29.8752    1.3340    2.2947 O.2       0 UNK        -0.5197 
      4 N          29.1345   -0.2969    0.9648 N.am      1 UNK        -0.4892 
      5 CA         28.7410   -0.9051   -0.3104 C.3       1 UNK         0.0835 
      6 C6         28.5471   -2.4372   -0.1585 C.3       12 UNK        -0.0855 
      7 S7         28.2475   -3.2792   -1.7478 S.3       12 UNK        -0.2931 
      8 C8         29.8779   -4.0059   -2.1163 C.3       12 UNK         0.0378 
      9 C9         30.0669   -4.2513   -3.6096 C.ar      12 UNK        -0.0802 
     10 C10        31.2075   -3.7692   -4.2590 C.ar      12 UNK        -0.0944 
     11 C11        31.3876   -3.9714   -5.6308 C.ar      12 UNK        -0.0787 
     12 C12        30.4067   -4.6534   -6.3611 C.ar      12 UNK        -0.0862 
     13 C13        29.2697   -5.1587   -5.7207 C.ar      12 UNK        -0.0733 
     14 C14        29.1109   -4.9594   -4.3460 C.ar      12 UNK        -0.0832 
     15 C15        28.2341   -5.9717   -6.4859 C.3       12 UNK         0.0240 
     16 S16        26.6783   -5.0561   -6.7396 S.3       12 UNK        -0.2522 
     17 C17        26.8384   -4.4602   -8.4629 C.3       12 UNK        -0.0967 
     18 CA         26.5362   -2.9518   -8.6505 C.3       5 UNK         0.0660 
     19 N          25.2632   -2.5459   -8.0466 N.am      5 UNK        -0.4015 
     20 C          24.6749   -1.3548   -8.2279 C.2       4 UNK         0.4946 
     21 O          25.1089   -0.4814   -8.9780 O.2       4 UNK        -0.5353 
     22 CA         23.4117   -1.0713   -7.3992 C.3       4 UNK         0.0277 
     23 CB         22.1678   -1.6512   -8.0911 C.3       4 UNK        -0.1981 
     24 N          23.4961   -1.5747   -6.0240 N.am      4 UNK        -0.4209 
     25 C          24.3764   -1.1406   -5.1119 C.2       3 UNK         0.4942 
     26 O          25.2315   -0.2807   -5.3356 O.2       3 UNK        -0.5208 
     27 CA         24.3163   -1.8109   -3.7367 C.3       3 UNK         0.0250 
     28 CB         25.1391   -3.1112   -3.7338 C.3       3 UNK        -0.1990 
     29 N          24.8459   -0.8939   -2.7294 N.am      3 UNK        -0.4232 
     30 C          24.3849   -0.7676   -1.4801 C.2       2 UNK         0.4993 
     31 O          23.4727   -1.4551   -1.0158 O.2       2 UNK        -0.5286 
     32 CA         25.0844    0.2771   -0.5891 C.3       2 UNK         0.0209 
     33 CB         24.2482    0.6545    0.6485 C.3       2 UNK        -0.1931 
     34 N          26.3846   -0.2275   -0.1451 N.am      2 UNK        -0.4546 
     35 C          27.4963   -0.2011   -0.8905 C.2       1 UNK         0.5154 
     36 O          27.5678    0.3734   -1.9765 O.2       1 UNK        -0.5181 
     37 C          27.7052   -2.0679   -8.1810 C.2       5 UNK         0.5014 
     38 O          28.4941   -1.6198   -9.0130 O.2       5 UNK        -0.5248 
     39 N          27.7596   -1.7964   -6.8702 N.am      6 UNK        -0.4434 
     40 CA         28.7476   -0.9227   -6.2434 C.3       6 UNK         0.0363 
     41 CB         28.6136   -0.9989   -4.7193 C.3       6 UNK        -0.1936 
     42 C          28.6351    0.5292   -6.7206 C.2       6 UNK         0.5081 
     43 O          29.6608    1.1538   -6.9851 O.2       6 UNK        -0.5248 
     44 N          27.3989    1.0284   -6.8526 N.am      7 UNK        -0.4718 
     45 CA         27.0974    2.3495   -7.4027 C.3       7 UNK         0.0273 
     46 CB         25.6094    2.6704   -7.1900 C.3       7 UNK        -0.1935 
     47 C          27.4834    2.4724   -8.8864 C.2       7 UNK         0.5018 
     48 O          28.1019    3.4677   -9.2639 O.2       7 UNK        -0.5186 
     49 N          27.1341    1.4580   -9.6916 N.am      8 UNK        -0.4240 
     50 CA         27.4310    1.3923  -11.1248 C.3       8 UNK         0.0235 
     51 CB         26.6613    0.2244  -11.7629 C.3       8 UNK        -0.2000 
     52 C          28.9333    1.2814  -11.4300 C.2       8 UNK         0.4941 
     53 O          29.4260    2.0040  -12.2972 O.2       8 UNK        -0.5273 
     54 N          29.6341    0.3880  -10.7182 N.am      9 UNK        -0.4262 
     55 CA         31.0721    0.1528  -10.8822 C.3       9 UNK         0.0264 
     56 CB         31.3973   -1.2795  -10.4314 C.3       9 UNK        -0.1955 
     57 C          31.9584    1.1780  -10.1487 C.2       9 UNK         0.5031 
     58 O          33.1660    1.1919  -10.3929 O.2       9 UNK        -0.5390 
     59 N          31.3596    2.0058   -9.2786 N.am      10 UNK        -0.4204 
     60 CA         31.9900    3.0129   -8.4164 C.3       10 UNK         0.0237 
     61 CB         32.6349    4.1408   -9.2506 C.3       10 UNK        -0.1985 
     62 C          32.9514    2.3780   -7.3928 C.2       10 UNK         0.4970 
     63 O          34.0993    2.8087   -7.2638 O.2       10 UNK        -0.4914 
     64 N          32.4538    1.3557   -6.6873 N.am      11 UNK        -0.4285 
     65 CA         33.1823    0.6094   -5.6481 C.3       11 UNK         0.1007 
     66 C          33.3199    1.3672   -4.2955 C.2       11 UNK         0.5703 
     67 N          32.5992    2.4588   -4.0646 N.am      11 UNK        -0.7361 
     68 O          34.1035    0.9594   -3.4416 O.2       11 UNK        -0.4986 
     69 C69        32.5867   -0.8059   -5.4248 C.3       12 UNK        -0.0947 
     70 S70        32.5418   -1.8039   -6.9506 S.3       12 UNK        -0.2240 
     71 C71        32.6686   -3.5008   -6.3089 C.3       12 UNK         0.0194 
     72 H72        30.5847    1.2550   -0.7913 H         1 UNK         0.0906 
     73 H73        29.1287    2.2221   -0.4947 H         1 UNK         0.0906 
     74 H74        30.6484    2.6376    0.2863 H         1 UNK         0.0906 
     75 H75        28.9266   -0.8487    1.7853 H         1 UNK         0.3140 
     76 H76        29.5548   -0.7602   -1.0234 H         1 UNK         0.1085 
     77 H77        29.4258   -2.8797    0.3138 H         1 UNK         0.0836 
     78 H78        27.7127   -2.6619    0.5082 H         1 UNK         0.0836 
     79 H79        29.9856   -4.9472   -1.5759 H         1 UNK         0.0731 
     80 H80        30.6570   -3.3386   -1.7442 H         1 UNK         0.0731 
     81 H81        31.9633   -3.2406   -3.6950 H         1 UNK         0.1312 
     82 H82        30.5440   -4.8148   -7.4216 H         1 UNK         0.1406 
     83 H83        28.2325   -5.3483   -3.8486 H         1 UNK         0.1631 
     84 H84        28.0080   -6.8737   -5.9152 H         1 UNK         0.0717 
     85 H85        28.6345   -6.3210   -7.4385 H         1 UNK         0.0717 
     86 H86        27.8278   -4.6989   -8.8581 H         1 UNK         0.0934 
     87 H87        26.1416   -5.0406   -9.0696 H         1 UNK         0.0934 
     88 H88        26.4381   -2.7785   -9.7246 H         1 UNK         0.0739 
     89 H89        24.8439   -3.2065   -7.4090 H         1 UNK         0.3093 
     90 H90        23.2950    0.0134   -7.3459 H         1 UNK         0.0818 
     91 H91        21.2546   -1.3717   -7.5654 H         1 UNK         0.0819 
     92 H92        22.0791   -1.2744   -9.1112 H         1 UNK         0.0819 
     93 H93        22.2036   -2.7398   -8.1482 H         1 UNK         0.0819 
     94 H94        22.8296   -2.2864   -5.7591 H         1 UNK         0.3041 
     95 H95        23.2720   -2.0405   -3.5138 H         1 UNK         0.0784 
     96 H96        24.7435   -3.8321   -4.4501 H         1 UNK         0.0793 
     97 H97        26.1824   -2.9294   -3.9951 H         1 UNK         0.0793 
     98 H98        25.1222   -3.5880   -2.7536 H         1 UNK         0.0793 
     99 H99        25.5963   -0.2905   -3.0490 H         1 UNK         0.3024 
    100 H100       25.2252    1.1834   -1.1834 H         1 UNK         0.1171 
    101 H101       24.7335    1.4392    1.2293 H         1 UNK         0.0786 
    102 H102       23.2667    1.0296    0.3555 H         1 UNK         0.0786 
    103 H103       24.0877   -0.1992    1.3082 H         1 UNK         0.0786 
    104 H104       26.4023   -0.7165    0.7380 H         1 UNK         0.2977 
    105 H105       27.0619   -2.2026   -6.2657 H         1 UNK         0.3127 
    106 H106       29.7332   -1.2940   -6.5239 H         1 UNK         0.0770 
    107 H107       27.6300   -0.6747   -4.3838 H         1 UNK         0.0814 
    108 H108       28.7640   -2.0148   -4.3655 H         1 UNK         0.0814 
    109 H109       29.3492   -0.3662   -4.2219 H         1 UNK         0.0814 
    110 H110       26.6114    0.4639   -6.5454 H         1 UNK         0.2983 
    111 H111       27.6863    3.0821   -6.8464 H         1 UNK         0.0947 
    112 H112       25.3463    2.6430   -6.1324 H         1 UNK         0.0806 
    113 H113       24.9638    1.9634   -7.7114 H         1 UNK         0.0806 
    114 H114       25.3686    3.6678   -7.5601 H         1 UNK         0.0806 
    115 H115       26.5802    0.6961   -9.3059 H         1 UNK         0.3000 
    116 H116       27.0720    2.3190  -11.5776 H         1 UNK         0.0850 
    117 H117       26.8630    0.1596  -12.8330 H         1 UNK         0.0810 
    118 H118       25.5849    0.3482  -11.6428 H         1 UNK         0.0810 
    119 H119       26.9379   -0.7322  -11.3181 H         1 UNK         0.0810 
    120 H120       29.1502   -0.2065  -10.0459 H         1 UNK         0.3040 
    121 H121       31.3184    0.2271  -11.9436 H         1 UNK         0.0766 
    122 H122       31.1123   -1.4421   -9.3931 H         1 UNK         0.0812 
    123 H123       32.4639   -1.4916  -10.5165 H         1 UNK         0.0812 
    124 H124       30.8691   -2.0149  -11.0381 H         1 UNK         0.0812 
    125 H125       30.3707    1.8653   -9.1151 H         1 UNK         0.3205 
    126 H126       31.1808    3.4600   -7.8368 H         1 UNK         0.0754 
    127 H127       32.9943    4.9440   -8.6063 H         1 UNK         0.0769 
    128 H128       31.9171    4.5785   -9.9445 H         1 UNK         0.0769 
    129 H129       33.4873    3.7846   -9.8298 H         1 UNK         0.0769 
    130 H130       31.4778    1.1031   -6.8290 H         1 UNK         0.2981 
    131 H131       34.2029    0.4713   -6.0102 H         1 UNK         0.0541 
    132 H132       31.9507    2.7978   -4.7563 H         1 UNK         0.3459 
    133 H133       32.7051    2.9439   -3.1880 H         1 UNK         0.3459 
    134 H134       31.5756   -0.7389   -5.0236 H         1 UNK         0.0612 
    135 H135       33.1774   -1.3449   -4.6823 H         1 UNK         0.0612 
    136 H136       33.5118   -3.5694   -5.6199 H         1 UNK         0.0624 
    137 H137       32.9071   -4.1652   -7.1407 H         1 UNK         0.0624 
@<TRIPOS>BOND
     1    1    2 1    
     2    1   72 1    
     3    1   73 1    
     4    1   74 1    
     5    2    3 2    
     6    2    4 am   BACKBONE|DICT|INTERRES
     7    4    5 1    
     8    4   75 1    
     9    5    6 1    
    10    5   35 1    
    11    5   76 1    
    12    6    7 1    
    13    6   77 1    
    14    6   78 1    
    15    7    8 1    
    16    8    9 1    
    17    8   79 1    
    18    8   80 1    
    19    9   10 ar   
    20    9   14 ar   
    21   10   11 ar   
    22   10   81 1    
    23   11   12 ar   
    24   11   71 1    
    25   12   13 ar   
    26   12   82 1    
    27   13   14 ar   
    28   13   15 1    
    29   14   83 1    
    30   15   16 1    
    31   15   84 1    
    32   15   85 1    
    33   16   17 1    
    34   17   18 1    
    35   17   86 1    
    36   17   87 1    
    37   18   19 1    
    38   18   37 1    
    39   18   88 1    
    40   19   20 am   BACKBONE|DICT|INTERRES
    41   19   89 1    
    42   20   21 2    
    43   20   22 1    
    44   22   23 1    
    45   22   24 1    
    46   22   90 1    
    47   23   91 1    
    48   23   92 1    
    49   23   93 1    
    50   24   25 am   BACKBONE|DICT|INTERRES
    51   24   94 1    
    52   25   26 2    
    53   25   27 1    
    54   27   28 1    
    55   27   29 1    
    56   27   95 1    
    57   28   96 1    
    58   28   97 1    
    59   28   98 1    
    60   29   30 am   BACKBONE|DICT|INTERRES
    61   29   99 1    
    62   30   31 2    
    63   30   32 1    
    64   32   33 1    
    65   32   34 1    
    66   32  100 1    
    67   33  101 1    
    68   33  102 1    
    69   33  103 1    
    70   34   35 am   BACKBONE|DICT|INTERRES
    71   34  104 1    
    72   35   36 2    
    73   37   38 2    
    74   37   39 am   BACKBONE|DICT|INTERRES
    75   39   40 1    
    76   39  105 1    
    77   40   41 1    
    78   40   42 1    
    79   40  106 1    
    80   41  107 1    
    81   41  108 1    
    82   41  109 1    
    83   42   43 2    
    84   42   44 am   BACKBONE|DICT|INTERRES
    85   44   45 1    
    86   44  110 1    
    87   45   46 1    
    88   45   47 1    
    89   45  111 1    
    90   46  112 1    
    91   46  113 1    
    92   46  114 1    
    93   47   48 2    
    94   47   49 am   BACKBONE|DICT|INTERRES
    95   49   50 1    
    96   49  115 1    
    97   50   51 1    
    98   50   52 1    
    99   50  116 1    
   100   51  117 1    
   101   51  118 1    
   102   51  119 1    
   103   52   53 2    
   104   52   54 am   BACKBONE|DICT|INTERRES
   105   54   55 1    
   106   54  120 1    
   107   55   56 1    
   108   55   57 1    
   109   55  121 1    
   110   56  122 1    
   111   56  123 1    
   112   56  124 1    
   113   57   58 2    
   114   57   59 am   BACKBONE|DICT|INTERRES
   115   59   60 1    
   116   59  125 1    
   117   60   61 1    
   118   60   62 1    
   119   60  126 1    
   120   61  127 1    
   121   61  128 1    
   122   61  129 1    
   123   62   63 2    
   124   62   64 am   BACKBONE|DICT|INTERRES
   125   64   65 1    
   126   64  130 1    
   127   65   66 1    
   128   65   69 1    
   129   65  131 1    
   130   66   67 am   BACKBONE|DICT|INTERRES
   131   66   68 2    
   132   67  132 1    
   133   67  133 1    
   134   69   70 1    
   135   69  134 1    
   136   69  135 1    
   137   70   71 1    
   138   71  136 1    
   139   71  137 1    
@<TRIPOS>SUBSTRUCTURE
     1 UNK         1 GROUP             0       ****    0 ROOT    
