@<TRIPOS>MOLECULE
3R137
137   139    1
SMALL
USER_CHARGES


@<TRIPOS>ATOM
      1 CA         30.4269   -5.3689   -6.3636 C.3       0 UNK        -0.2020 
      2 C          29.2905   -5.5874   -5.3773 C.2       0 UNK         0.4855 
      3 O          28.8860   -6.7276   -5.1513 O.2       0 UNK        -0.5197 
      4 N          28.7682   -4.5022   -4.7896 N.am      1 UNK        -0.4892 
      5 CA         27.6676   -4.5278   -3.8139 C.3       1 UNK         0.0835 
      6 C6         27.6299   -3.2193   -2.9724 C.3       12 UNK        -0.0855 
      7 S7         27.6161   -3.5415   -1.1762 S.3       12 UNK        -0.2931 
      8 C8         29.3412   -4.0496   -0.8620 C.3       12 UNK         0.0378 
      9 C9         30.3329   -2.9675   -1.2588 C.ar      12 UNK        -0.0802 
     10 C10        31.0621   -3.0806   -2.4448 C.ar      12 UNK        -0.0944 
     11 C11        31.9169   -2.0540   -2.8535 C.ar      12 UNK        -0.0787 
     12 C12        32.0686   -0.9202   -2.0484 C.ar      12 UNK        -0.0862 
     13 C13        31.3572   -0.8068   -0.8499 C.ar      12 UNK        -0.0733 
     14 C14        30.4959   -1.8359   -0.4580 C.ar      12 UNK        -0.0832 
     15 C15        31.4994    0.4254    0.0274 C.3       12 UNK         0.0240 
     16 S16        29.9718    1.4138    0.0201 S.3       12 UNK        -0.2522 
     17 C17        30.1805    2.4565   -1.4634 C.3       12 UNK        -0.0967 
     18 CA         29.4980    1.9240   -2.7581 C.3       5 UNK         0.0660 
     19 N          28.1201    1.4766   -2.5109 N.am      5 UNK        -0.4015 
     20 C          27.3923    0.6880   -3.3119 C.2       4 UNK         0.4946 
     21 O          27.8267    0.1893   -4.3550 O.2       4 UNK        -0.5353 
     22 CA         25.9236    0.4582   -2.9233 C.3       4 UNK         0.0277 
     23 CB         25.2094    1.7824   -2.5676 C.3       4 UNK        -0.1981 
     24 N          25.2676   -0.1836   -4.0605 N.am      4 UNK        -0.4209 
     25 C          24.0568   -0.7516   -4.0774 C.2       3 UNK         0.4942 
     26 O          23.3247   -0.8486   -3.0925 O.2       3 UNK        -0.5208 
     27 CA         23.5973   -1.3302   -5.4200 C.3       3 UNK         0.0250 
     28 CB         23.7028   -0.3125   -6.5739 C.3       3 UNK        -0.1990 
     29 N          24.3875   -2.5182   -5.7242 N.am      3 UNK        -0.4232 
     30 C          23.9339   -3.6216   -6.3311 C.2       2 UNK         0.4993 
     31 O          22.7762   -3.7578   -6.7289 O.2       2 UNK        -0.5286 
     32 CA         24.9400   -4.7693   -6.5485 C.3       2 UNK         0.0209 
     33 CB         25.2978   -4.8930   -8.0390 C.3       2 UNK        -0.1931 
     34 N          26.1793   -4.6212   -5.7771 N.am      2 UNK        -0.4546 
     35 C          26.2928   -4.8210   -4.4558 C.2       1 UNK         0.5154 
     36 O          25.3576   -5.1928   -3.7467 O.2       1 UNK        -0.5181 
     37 C          29.5404    2.9890   -3.8877 C.2       5 UNK         0.5014 
     38 O          29.9774    4.1172   -3.6486 O.2       5 UNK        -0.5248 
     39 N          29.0268    2.6510   -5.0759 N.am      6 UNK        -0.4434 
     40 CA         28.7766    3.5770   -6.1768 C.3       6 UNK         0.0363 
     41 CB         27.3166    4.0594   -6.0911 C.3       6 UNK        -0.1936 
     42 C          29.0428    2.9090   -7.5278 C.2       6 UNK         0.5081 
     43 O          29.1254    1.6800   -7.6176 O.2       6 UNK        -0.5248 
     44 N          29.1282    3.7426   -8.5738 N.am      7 UNK        -0.4718 
     45 CA         29.3646    3.3573   -9.9708 C.3       7 UNK         0.0273 
     46 CB         29.4467    4.6217  -10.8397 C.3       7 UNK        -0.1935 
     47 C          28.3283    2.3768  -10.5466 C.2       7 UNK         0.5018 
     48 O          28.6781    1.5901  -11.4253 O.2       7 UNK        -0.5186 
     49 N          27.1058    2.3810   -9.9953 N.am      8 UNK        -0.4240 
     50 CA         26.0422    1.4102  -10.2770 C.3       8 UNK         0.0235 
     51 CB         24.7762    1.8143   -9.5039 C.3       8 UNK        -0.2000 
     52 C          26.4245   -0.0501   -9.9591 C.2       8 UNK         0.4941 
     53 O          25.8913   -0.9581  -10.5970 O.2       8 UNK        -0.5273 
     54 N          27.3498   -0.2471   -9.0092 N.am      9 UNK        -0.4262 
     55 CA         27.9439   -1.5400   -8.6646 C.3       9 UNK         0.0264 
     56 CB         27.8833   -1.7028   -7.1376 C.3       9 UNK        -0.1955 
     57 C          29.4001   -1.6599   -9.1541 C.2       9 UNK         0.5031 
     58 O          30.0576   -2.6425   -8.8117 O.2       9 UNK        -0.5390 
     59 N          29.8899   -0.6600   -9.9064 N.am      10 UNK        -0.4204 
     60 CA         31.2882   -0.4410  -10.3025 C.3       10 UNK         0.0237 
     61 CB         31.7867   -1.5596  -11.2427 C.3       10 UNK        -0.1985 
     62 C          32.2308   -0.1948   -9.1031 C.2       10 UNK         0.4970 
     63 O          33.4247   -0.4845   -9.1978 O.2       10 UNK        -0.4914 
     64 N          31.6838    0.3505   -8.0092 N.am      11 UNK        -0.4285 
     65 CA         32.3799    0.6327   -6.7445 C.3       11 UNK         0.1007 
     66 C          32.7199    2.1392   -6.5518 C.2       11 UNK         0.5703 
     67 N          32.5407    2.9972   -7.5496 N.am      11 UNK        -0.7361 
     68 O          33.1789    2.5380   -5.4844 O.2       11 UNK        -0.4986 
     69 C69        31.5848    0.0549   -5.5438 C.3       12 UNK        -0.0947 
     70 S70        31.5481   -1.7669   -5.5692 S.3       12 UNK        -0.2240 
     71 C71        32.6497   -2.1736   -4.1798 C.3       12 UNK         0.0194 
     72 H72        30.4939   -4.3292   -6.6820 H         1 UNK         0.0906 
     73 H73        31.3775   -5.6506   -5.9119 H         1 UNK         0.0906 
     74 H74        30.2769   -5.9785   -7.2542 H         1 UNK         0.0906 
     75 H75        29.1621   -3.5933   -4.9924 H         1 UNK         0.3140 
     76 H76        27.8596   -5.3737   -3.1499 H         1 UNK         0.1085 
     77 H77        26.7530   -2.6098   -3.1991 H         1 UNK         0.0836 
     78 H78        28.4694   -2.5629   -3.2040 H         1 UNK         0.0836 
     79 H79        29.5503   -4.9780   -1.3955 H         1 UNK         0.0731 
     80 H80        29.4560   -4.2769    0.1988 H         1 UNK         0.0731 
     81 H81        30.9393   -3.9535   -3.0706 H         1 UNK         0.1312 
     82 H82        32.7298   -0.1230   -2.3591 H         1 UNK         0.1406 
     83 H83        29.9280   -1.7412    0.4580 H         1 UNK         0.1631 
     84 H84        32.3496    1.0374   -0.2772 H         1 UNK         0.0717 
     85 H85        31.7051    0.1084    1.0508 H         1 UNK         0.0717 
     86 H86        29.7717    3.4327   -1.1942 H         1 UNK         0.0934 
     87 H87        31.2442    2.6245   -1.6419 H         1 UNK         0.0934 
     88 H88        30.0690    1.0601   -3.1034 H         1 UNK         0.0739 
     89 H89        27.6918    1.8449   -1.6748 H         1 UNK         0.3093 
     90 H90        25.8992   -0.2217   -2.0692 H         1 UNK         0.0818 
     91 H91        25.6392    2.2465   -1.6797 H         1 UNK         0.0819 
     92 H92        25.2756    2.5047   -3.3825 H         1 UNK         0.0819 
     93 H93        24.1529    1.6254   -2.3513 H         1 UNK         0.0819 
     94 H94        25.8461   -0.1829   -4.8921 H         1 UNK         0.3041 
     95 H95        22.5473   -1.6085   -5.3038 H         1 UNK         0.0784 
     96 H96        23.1872    0.6164   -6.3265 H         1 UNK         0.0793 
     97 H97        24.7374   -0.0635   -6.8109 H         1 UNK         0.0793 
     98 H98        23.2447   -0.7037   -7.4825 H         1 UNK         0.0793 
     99 H99        25.3362   -2.5260   -5.3824 H         1 UNK         0.3024 
    100 H100       24.4472   -5.6925   -6.2342 H         1 UNK         0.1171 
    101 H101       25.7688   -3.9857   -8.4178 H         1 UNK         0.0786 
    102 H102       25.9765   -5.7271   -8.2187 H         1 UNK         0.0786 
    103 H103       24.4052   -5.0693   -8.6410 H         1 UNK         0.0786 
    104 H104       27.0088   -4.3597   -6.2885 H         1 UNK         0.2977 
    105 H105       28.7013    1.6959   -5.2131 H         1 UNK         0.3127 
    106 H106       29.4484    4.4348   -6.1009 H         1 UNK         0.0770 
    107 H107       26.6134    3.2299   -6.1792 H         1 UNK         0.0814 
    108 H108       27.0830    4.7737   -6.8814 H         1 UNK         0.0814 
    109 H109       27.1218    4.5595   -5.1422 H         1 UNK         0.0814 
    110 H110       29.0397    4.7340   -8.3997 H         1 UNK         0.2983 
    111 H111       30.3327    2.8546  -10.0098 H         1 UNK         0.0947 
    112 H112       29.6468    4.3678  -11.8819 H         1 UNK         0.0806 
    113 H113       30.2515    5.2793  -10.5101 H         1 UNK         0.0806 
    114 H114       28.5161    5.1901  -10.8159 H         1 UNK         0.0806 
    115 H115       26.9154    3.0690   -9.2819 H         1 UNK         0.3000 
    116 H116       25.8248    1.4609  -11.3461 H         1 UNK         0.0850 
    117 H117       24.9530    1.8484   -8.4284 H         1 UNK         0.0810 
    118 H118       23.9662    1.1046   -9.6793 H         1 UNK         0.0810 
    119 H119       24.4171    2.7951   -9.8159 H         1 UNK         0.0810 
    120 H120       27.7488    0.5563   -8.5316 H         1 UNK         0.3040 
    121 H121       27.3828   -2.3550   -9.1245 H         1 UNK         0.0766 
    122 H122       26.8660   -1.5987   -6.7659 H         1 UNK         0.0812 
    123 H123       28.5034   -0.9601   -6.6339 H         1 UNK         0.0812 
    124 H124       28.2483   -2.6836   -6.8388 H         1 UNK         0.0812 
    125 H125       29.2462    0.0631  -10.2090 H         1 UNK         0.3205 
    126 H126       31.2918    0.4869  -10.8758 H         1 UNK         0.0754 
    127 H127       32.7610   -1.3107  -11.6650 H         1 UNK         0.0769 
    128 H128       31.1023   -1.7097  -12.0776 H         1 UNK         0.0769 
    129 H129       31.8942   -2.5110  -10.7208 H         1 UNK         0.0769 
    130 H130       30.6998    0.6001   -8.0141 H         1 UNK         0.2981 
    131 H131       33.3517    0.1364   -6.7531 H         1 UNK         0.0541 
    132 H132       32.2032    2.6788   -8.4416 H         1 UNK         0.3459 
    133 H133       32.7832    3.9655   -7.4138 H         1 UNK         0.3459 
    134 H134       30.5546    0.4095   -5.5604 H         1 UNK         0.0612 
    135 H135       32.0055    0.3870   -4.5950 H         1 UNK         0.0612 
    136 H136       33.5319   -1.5320   -4.2030 H         1 UNK         0.0624 
    137 H137       33.0099   -3.1956   -4.3059 H         1 UNK         0.0624 
@<TRIPOS>BOND
     1    1    2 1    
     2    1   72 1    
     3    1   73 1    
     4    1   74 1    
     5    2    3 2    
     6    2    4 am   BACKBONE|DICT|INTERRES
     7    4    5 1    
     8    4   75 1    
     9    5    6 1    
    10    5   35 1    
    11    5   76 1    
    12    6    7 1    
    13    6   77 1    
    14    6   78 1    
    15    7    8 1    
    16    8    9 1    
    17    8   79 1    
    18    8   80 1    
    19    9   10 ar   
    20    9   14 ar   
    21   10   11 ar   
    22   10   81 1    
    23   11   12 ar   
    24   11   71 1    
    25   12   13 ar   
    26   12   82 1    
    27   13   14 ar   
    28   13   15 1    
    29   14   83 1    
    30   15   16 1    
    31   15   84 1    
    32   15   85 1    
    33   16   17 1    
    34   17   18 1    
    35   17   86 1    
    36   17   87 1    
    37   18   19 1    
    38   18   37 1    
    39   18   88 1    
    40   19   20 am   BACKBONE|DICT|INTERRES
    41   19   89 1    
    42   20   21 2    
    43   20   22 1    
    44   22   23 1    
    45   22   24 1    
    46   22   90 1    
    47   23   91 1    
    48   23   92 1    
    49   23   93 1    
    50   24   25 am   BACKBONE|DICT|INTERRES
    51   24   94 1    
    52   25   26 2    
    53   25   27 1    
    54   27   28 1    
    55   27   29 1    
    56   27   95 1    
    57   28   96 1    
    58   28   97 1    
    59   28   98 1    
    60   29   30 am   BACKBONE|DICT|INTERRES
    61   29   99 1    
    62   30   31 2    
    63   30   32 1    
    64   32   33 1    
    65   32   34 1    
    66   32  100 1    
    67   33  101 1    
    68   33  102 1    
    69   33  103 1    
    70   34   35 am   BACKBONE|DICT|INTERRES
    71   34  104 1    
    72   35   36 2    
    73   37   38 2    
    74   37   39 am   BACKBONE|DICT|INTERRES
    75   39   40 1    
    76   39  105 1    
    77   40   41 1    
    78   40   42 1    
    79   40  106 1    
    80   41  107 1    
    81   41  108 1    
    82   41  109 1    
    83   42   43 2    
    84   42   44 am   BACKBONE|DICT|INTERRES
    85   44   45 1    
    86   44  110 1    
    87   45   46 1    
    88   45   47 1    
    89   45  111 1    
    90   46  112 1    
    91   46  113 1    
    92   46  114 1    
    93   47   48 2    
    94   47   49 am   BACKBONE|DICT|INTERRES
    95   49   50 1    
    96   49  115 1    
    97   50   51 1    
    98   50   52 1    
    99   50  116 1    
   100   51  117 1    
   101   51  118 1    
   102   51  119 1    
   103   52   53 2    
   104   52   54 am   BACKBONE|DICT|INTERRES
   105   54   55 1    
   106   54  120 1    
   107   55   56 1    
   108   55   57 1    
   109   55  121 1    
   110   56  122 1    
   111   56  123 1    
   112   56  124 1    
   113   57   58 2    
   114   57   59 am   BACKBONE|DICT|INTERRES
   115   59   60 1    
   116   59  125 1    
   117   60   61 1    
   118   60   62 1    
   119   60  126 1    
   120   61  127 1    
   121   61  128 1    
   122   61  129 1    
   123   62   63 2    
   124   62   64 am   BACKBONE|DICT|INTERRES
   125   64   65 1    
   126   64  130 1    
   127   65   66 1    
   128   65   69 1    
   129   65  131 1    
   130   66   67 am   BACKBONE|DICT|INTERRES
   131   66   68 2    
   132   67  132 1    
   133   67  133 1    
   134   69   70 1    
   135   69  134 1    
   136   69  135 1    
   137   70   71 1    
   138   71  136 1    
   139   71  137 1    
@<TRIPOS>SUBSTRUCTURE
     1 UNK         1 GROUP             0       ****    0 ROOT    
