@<TRIPOS>MOLECULE
3R137
137   139    1
SMALL
USER_CHARGES


@<TRIPOS>ATOM
      1 CA         27.3164   -2.0365   -6.2917 C.3       0 UNK        -0.2020 
      2 C          26.8412   -2.8867   -5.1225 C.2       0 UNK         0.4855 
      3 O          26.3810   -2.3404   -4.1184 O.2       0 UNK        -0.5197 
      4 N          26.9428   -4.2172   -5.2552 N.am      1 UNK        -0.4892 
      5 CA         26.6962   -5.2305   -4.2138 C.3       1 UNK         0.0835 
      6 C6         27.7605   -5.1951   -3.0819 C.3       12 UNK        -0.0855 
      7 S7         29.4317   -5.5619   -3.7113 S.3       12 UNK        -0.2931 
      8 C8         30.4400   -5.2521   -2.2283 C.3       12 UNK         0.0378 
      9 C9         30.6482   -3.7645   -1.9856 C.ar      12 UNK        -0.0802 
     10 C10        31.5247   -3.0449   -2.8033 C.ar      12 UNK        -0.0944 
     11 C11        31.7359   -1.6809   -2.5893 C.ar      12 UNK        -0.0787 
     12 C12        31.0828   -1.0422   -1.5322 C.ar      12 UNK        -0.0862 
     13 C13        30.1973   -1.7471   -0.7103 C.ar      12 UNK        -0.0733 
     14 C14        29.9824   -3.1098   -0.9431 C.ar      12 UNK        -0.0832 
     15 C15        29.4850   -1.0380    0.4354 C.3       12 UNK         0.0240 
     16 S16        27.8464   -0.4016   -0.0505 S.3       12 UNK        -0.2522 
     17 C17        28.2943    0.9124   -1.2371 C.3       12 UNK        -0.0967 
     18 CA         28.0778    0.4375   -2.7003 C.3       5 UNK         0.0660 
     19 N          26.6653    0.2122   -3.0312 N.am      5 UNK        -0.4015 
     20 C          25.6913    1.1318   -3.0957 C.2       4 UNK         0.4946 
     21 O          25.8579    2.3342   -2.8893 O.2       4 UNK        -0.5353 
     22 CA         24.2906    0.6201   -3.4597 C.3       4 UNK         0.0277 
     23 CB         24.1260    0.5074   -4.9835 C.3       4 UNK        -0.1981 
     24 N          24.0122   -0.6773   -2.8437 N.am      4 UNK        -0.4209 
     25 C          23.5356   -0.8381   -1.6022 C.2       3 UNK         0.4942 
     26 O          23.2762    0.1047   -0.8519 O.2       3 UNK        -0.5208 
     27 CA         23.3169   -2.2810   -1.0970 C.3       3 UNK         0.0250 
     28 CB         22.0332   -2.4106   -0.2496 C.3       3 UNK        -0.1990 
     29 N          23.3523   -3.3174   -2.1386 N.am      3 UNK        -0.4232 
     30 C          22.5454   -3.4717   -3.1989 C.2       2 UNK         0.4993 
     31 O          21.6118   -2.7123   -3.4623 O.2       2 UNK        -0.5286 
     32 CA         22.8567   -4.6628   -4.1339 C.3       2 UNK         0.0209 
     33 CB         22.0411   -4.6169   -5.4404 C.3       2 UNK        -0.1931 
     34 N          24.2817   -4.7732   -4.4744 N.am      2 UNK        -0.4546 
     35 C          25.2504   -5.2238   -3.6638 C.2       1 UNK         0.5154 
     36 O          25.0253   -5.6087   -2.5144 O.2       1 UNK        -0.5181 
     37 C          28.8295    1.2847   -3.7542 C.2       5 UNK         0.5014 
     38 O          29.8852    1.8425   -3.4511 O.2       5 UNK        -0.5248 
     39 N          28.2952    1.3178   -4.9809 N.am      6 UNK        -0.4434 
     40 CA         28.8632    1.8619   -6.2095 C.3       6 UNK         0.0363 
     41 CB         29.1168    3.3789   -6.1066 C.3       6 UNK        -0.1936 
     42 C          27.8618    1.5654   -7.3289 C.2       6 UNK         0.5081 
     43 O          26.6574    1.5371   -7.0637 O.2       6 UNK        -0.5248 
     44 N          28.3587    1.3654   -8.5521 N.am      7 UNK        -0.4718 
     45 CA         27.5413    1.1794   -9.7510 C.3       7 UNK         0.0273 
     46 CB         26.8867   -0.2194   -9.7846 C.3       7 UNK        -0.1935 
     47 C          28.4105    1.4617  -10.9791 C.2       7 UNK         0.5018 
     48 O          28.9729    0.5307  -11.5605 O.2       7 UNK        -0.5186 
     49 N          28.5331    2.7523  -11.3224 N.am      8 UNK        -0.4240 
     50 CA         29.3210    3.3020  -12.4318 C.3       8 UNK         0.0235 
     51 CB         28.6999    2.9135  -13.7939 C.3       8 UNK        -0.2000 
     52 C          30.8108    2.9387  -12.2975 C.2       8 UNK         0.4941 
     53 O          31.5104    3.5695  -11.5045 O.2       8 UNK        -0.5273 
     54 N          31.2617    1.9301  -13.0548 N.am      9 UNK        -0.4262 
     55 CA         32.6147    1.3783  -12.9870 C.3       9 UNK         0.0264 
     56 CB         32.8766    0.5222  -14.2366 C.3       9 UNK        -0.1955 
     57 C          32.8736    0.5587  -11.7100 C.2       9 UNK         0.5031 
     58 O          34.0239    0.4938  -11.2700 O.2       9 UNK        -0.5390 
     59 N          31.8274   -0.0539  -11.1321 N.am      10 UNK        -0.4204 
     60 CA         31.9275   -0.8177   -9.8875 C.3       10 UNK         0.0237 
     61 CB         30.6561   -1.6479   -9.6638 C.3       10 UNK        -0.1985 
     62 C          32.1727    0.1297   -8.7064 C.2       10 UNK         0.4970 
     63 O          31.4313    1.1040   -8.5493 O.2       10 UNK        -0.4914 
     64 N          33.2116   -0.1873   -7.9256 N.am      11 UNK        -0.4285 
     65 CA         33.7627    0.6201   -6.8241 C.3       11 UNK         0.1007 
     66 C          34.5253    1.8985   -7.2917 C.2       11 UNK         0.5703 
     67 N          34.8173    2.0726   -8.5767 N.am      11 UNK        -0.7361 
     68 O          34.8950    2.7351   -6.4709 O.2       11 UNK        -0.4986 
     69 C69        32.7473    0.9202   -5.6834 C.3       12 UNK        -0.0947 
     70 S70        31.8391   -0.5521   -5.0954 S.3       12 UNK        -0.2240 
     71 C71        32.6563   -0.8915   -3.5065 C.3       12 UNK         0.0194 
     72 H72        27.6016   -2.6446   -7.1498 H         1 UNK         0.0906 
     73 H73        28.1841   -1.4484   -5.9946 H         1 UNK         0.0906 
     74 H74        26.5305   -1.3540   -6.6114 H         1 UNK         0.0906 
     75 H75        27.3155   -4.5892   -6.1181 H         1 UNK         0.3140 
     76 H76        26.7884   -6.1973   -4.7117 H         1 UNK         0.1085 
     77 H77        27.5413   -5.9350   -2.3096 H         1 UNK         0.0836 
     78 H78        27.7610   -4.2223   -2.5870 H         1 UNK         0.0836 
     79 H79        29.9792   -5.7313   -1.3630 H         1 UNK         0.0731 
     80 H80        31.4115   -5.7313   -2.3588 H         1 UNK         0.0731 
     81 H81        32.0301   -3.5440   -3.6191 H         1 UNK         0.1312 
     82 H82        31.2539    0.0116   -1.3619 H         1 UNK         0.1406 
     83 H83        29.2993   -3.6596   -0.3097 H         1 UNK         0.1631 
     84 H84        30.0963   -0.2181    0.8158 H         1 UNK         0.0717 
     85 H85        29.3569   -1.7286    1.2702 H         1 UNK         0.0717 
     86 H86        27.6960    1.7992   -1.0244 H         1 UNK         0.0934 
     87 H87        29.3258    1.2128   -1.0539 H         1 UNK         0.0934 
     88 H88        28.5390   -0.5470   -2.7930 H         1 UNK         0.0739 
     89 H89        26.4358   -0.7528   -3.2669 H         1 UNK         0.3093 
     90 H90        23.5641    1.3518   -3.0989 H         1 UNK         0.0818 
     91 H91        23.1110    0.2124   -5.2504 H         1 UNK         0.0819 
     92 H92        24.8098   -0.2230   -5.4144 H         1 UNK         0.0819 
     93 H93        24.3236    1.4643   -5.4690 H         1 UNK         0.0819 
     94 H94        24.2406   -1.5026   -3.3813 H         1 UNK         0.3041 
     95 H95        24.1643   -2.4920   -0.4429 H         1 UNK         0.0784 
     96 H96        22.0636   -1.7478    0.6161 H         1 UNK         0.0793 
     97 H97        21.1426   -2.1534   -0.8238 H         1 UNK         0.0793 
     98 H98        21.9077   -3.4254    0.1281 H         1 UNK         0.0793 
     99 H99        24.0839   -4.0165   -2.0346 H         1 UNK         0.3024 
    100 H100       22.5622   -5.5648   -3.5922 H         1 UNK         0.1171 
    101 H101       20.9698   -4.6063   -5.2347 H         1 UNK         0.0786 
    102 H102       22.2700   -3.7263   -6.0271 H         1 UNK         0.0786 
    103 H103       22.2380   -5.4899   -6.0629 H         1 UNK         0.0786 
    104 H104       24.5567   -4.4383   -5.3866 H         1 UNK         0.2977 
    105 H105       27.3892    0.8896   -5.1254 H         1 UNK         0.3127 
    106 H106       29.7938    1.3360   -6.4202 H         1 UNK         0.0770 
    107 H107       28.2118    3.9181   -5.8243 H         1 UNK         0.0814 
    108 H108       29.4558    3.7822   -7.0617 H         1 UNK         0.0814 
    109 H109       29.8895    3.6112   -5.3745 H         1 UNK         0.0814 
    110 H110       29.3661    1.3951   -8.6920 H         1 UNK         0.2983 
    111 H111       26.7362    1.9180   -9.7439 H         1 UNK         0.0947 
    112 H112       27.6144   -1.0245   -9.7057 H         1 UNK         0.0806 
    113 H113       26.3426   -0.3678  -10.7181 H         1 UNK         0.0806 
    114 H114       26.1675   -0.3426   -8.9753 H         1 UNK         0.0806 
    115 H115       28.0753    3.4398  -10.7397 H         1 UNK         0.3000 
    116 H116       29.2645    4.3886  -12.3467 H         1 UNK         0.0850 
    117 H117       29.2834    3.3193  -14.6217 H         1 UNK         0.0810 
    118 H118       27.6916    3.3169  -13.8888 H         1 UNK         0.0810 
    119 H119       28.6318    1.8343  -13.9338 H         1 UNK         0.0810 
    120 H120       30.6017    1.4538  -13.6531 H         1 UNK         0.3040 
    121 H121       33.3220    2.2106  -12.9904 H         1 UNK         0.0766 
    122 H122       33.8901    0.1184  -14.2264 H         1 UNK         0.0812 
    123 H123       32.7730    1.1091  -15.1494 H         1 UNK         0.0812 
    124 H124       32.1901   -0.3232  -14.2994 H         1 UNK         0.0812 
    125 H125       30.8907    0.1095  -11.4925 H         1 UNK         0.3205 
    126 H126       32.7675   -1.5090   -9.9858 H         1 UNK         0.0754 
    127 H127       29.8043   -1.0091   -9.4425 H         1 UNK         0.0769 
    128 H128       30.7783   -2.3248   -8.8174 H         1 UNK         0.0769 
    129 H129       30.4098   -2.2530  -10.5365 H         1 UNK         0.0769 
    130 H130       33.7479   -1.0115   -8.1542 H         1 UNK         0.2981 
    131 H131       34.5397   -0.0081   -6.3876 H         1 UNK         0.0541 
    132 H132       35.3218    2.8990   -8.8548 H         1 UNK         0.3459 
    133 H133       34.5279    1.4023   -9.2766 H         1 UNK         0.3459 
    134 H134       32.0168    1.6587   -6.0130 H         1 UNK         0.0612 
    135 H135       33.2580    1.3832   -4.8382 H         1 UNK         0.0612 
    136 H136       33.5789   -1.4457   -3.6842 H         1 UNK         0.0624 
    137 H137       32.9415    0.0455   -3.0264 H         1 UNK         0.0624 
@<TRIPOS>BOND
     1    1    2 1    
     2    1   72 1    
     3    1   73 1    
     4    1   74 1    
     5    2    3 2    
     6    2    4 am   BACKBONE|DICT|INTERRES
     7    4    5 1    
     8    4   75 1    
     9    5    6 1    
    10    5   35 1    
    11    5   76 1    
    12    6    7 1    
    13    6   77 1    
    14    6   78 1    
    15    7    8 1    
    16    8    9 1    
    17    8   79 1    
    18    8   80 1    
    19    9   10 ar   
    20    9   14 ar   
    21   10   11 ar   
    22   10   81 1    
    23   11   12 ar   
    24   11   71 1    
    25   12   13 ar   
    26   12   82 1    
    27   13   14 ar   
    28   13   15 1    
    29   14   83 1    
    30   15   16 1    
    31   15   84 1    
    32   15   85 1    
    33   16   17 1    
    34   17   18 1    
    35   17   86 1    
    36   17   87 1    
    37   18   19 1    
    38   18   37 1    
    39   18   88 1    
    40   19   20 am   BACKBONE|DICT|INTERRES
    41   19   89 1    
    42   20   21 2    
    43   20   22 1    
    44   22   23 1    
    45   22   24 1    
    46   22   90 1    
    47   23   91 1    
    48   23   92 1    
    49   23   93 1    
    50   24   25 am   BACKBONE|DICT|INTERRES
    51   24   94 1    
    52   25   26 2    
    53   25   27 1    
    54   27   28 1    
    55   27   29 1    
    56   27   95 1    
    57   28   96 1    
    58   28   97 1    
    59   28   98 1    
    60   29   30 am   BACKBONE|DICT|INTERRES
    61   29   99 1    
    62   30   31 2    
    63   30   32 1    
    64   32   33 1    
    65   32   34 1    
    66   32  100 1    
    67   33  101 1    
    68   33  102 1    
    69   33  103 1    
    70   34   35 am   BACKBONE|DICT|INTERRES
    71   34  104 1    
    72   35   36 2    
    73   37   38 2    
    74   37   39 am   BACKBONE|DICT|INTERRES
    75   39   40 1    
    76   39  105 1    
    77   40   41 1    
    78   40   42 1    
    79   40  106 1    
    80   41  107 1    
    81   41  108 1    
    82   41  109 1    
    83   42   43 2    
    84   42   44 am   BACKBONE|DICT|INTERRES
    85   44   45 1    
    86   44  110 1    
    87   45   46 1    
    88   45   47 1    
    89   45  111 1    
    90   46  112 1    
    91   46  113 1    
    92   46  114 1    
    93   47   48 2    
    94   47   49 am   BACKBONE|DICT|INTERRES
    95   49   50 1    
    96   49  115 1    
    97   50   51 1    
    98   50   52 1    
    99   50  116 1    
   100   51  117 1    
   101   51  118 1    
   102   51  119 1    
   103   52   53 2    
   104   52   54 am   BACKBONE|DICT|INTERRES
   105   54   55 1    
   106   54  120 1    
   107   55   56 1    
   108   55   57 1    
   109   55  121 1    
   110   56  122 1    
   111   56  123 1    
   112   56  124 1    
   113   57   58 2    
   114   57   59 am   BACKBONE|DICT|INTERRES
   115   59   60 1    
   116   59  125 1    
   117   60   61 1    
   118   60   62 1    
   119   60  126 1    
   120   61  127 1    
   121   61  128 1    
   122   61  129 1    
   123   62   63 2    
   124   62   64 am   BACKBONE|DICT|INTERRES
   125   64   65 1    
   126   64  130 1    
   127   65   66 1    
   128   65   69 1    
   129   65  131 1    
   130   66   67 am   BACKBONE|DICT|INTERRES
   131   66   68 2    
   132   67  132 1    
   133   67  133 1    
   134   69   70 1    
   135   69  134 1    
   136   69  135 1    
   137   70   71 1    
   138   71  136 1    
   139   71  137 1    
@<TRIPOS>SUBSTRUCTURE
     1 UNK         1 GROUP             0       ****    0 ROOT    
